* NGSPICE file created from FP32_ADD.ext - technology: sky130A

* Black-box entry subcircuit for sky130_fd_sc_hd__fill_1 abstract view
.subckt sky130_fd_sc_hd__fill_1 VGND VNB VPB VPWR
.ends

* Black-box entry subcircuit for sky130_fd_sc_hd__decap_8 abstract view
.subckt sky130_fd_sc_hd__decap_8 VGND VNB VPB VPWR
.ends

* Black-box entry subcircuit for sky130_ef_sc_hd__decap_12 abstract view
.subckt sky130_ef_sc_hd__decap_12 VPWR VGND VPB VNB
.ends

* Black-box entry subcircuit for sky130_fd_sc_hd__xor2_1 abstract view
.subckt sky130_fd_sc_hd__xor2_1 A B VGND VNB VPB VPWR X
.ends

* Black-box entry subcircuit for sky130_fd_sc_hd__nand2b_1 abstract view
.subckt sky130_fd_sc_hd__nand2b_1 A_N B VGND VNB VPB VPWR Y
.ends

* Black-box entry subcircuit for sky130_fd_sc_hd__o21ai_1 abstract view
.subckt sky130_fd_sc_hd__o21ai_1 A1 A2 B1 VGND VNB VPB VPWR Y
.ends

* Black-box entry subcircuit for sky130_fd_sc_hd__or2_1 abstract view
.subckt sky130_fd_sc_hd__or2_1 A B VGND VNB VPB VPWR X
.ends

* Black-box entry subcircuit for sky130_fd_sc_hd__tapvpwrvgnd_1 abstract view
.subckt sky130_fd_sc_hd__tapvpwrvgnd_1 VGND VPWR
.ends

* Black-box entry subcircuit for sky130_fd_sc_hd__dfxtp_1 abstract view
.subckt sky130_fd_sc_hd__dfxtp_1 CLK D VGND VNB VPB VPWR Q
.ends

* Black-box entry subcircuit for sky130_fd_sc_hd__decap_6 abstract view
.subckt sky130_fd_sc_hd__decap_6 VGND VNB VPB VPWR
.ends

* Black-box entry subcircuit for sky130_fd_sc_hd__decap_3 abstract view
.subckt sky130_fd_sc_hd__decap_3 VGND VNB VPB VPWR
.ends

* Black-box entry subcircuit for sky130_fd_sc_hd__and2_1 abstract view
.subckt sky130_fd_sc_hd__and2_1 A B VGND VNB VPB VPWR X
.ends

* Black-box entry subcircuit for sky130_fd_sc_hd__mux2_1 abstract view
.subckt sky130_fd_sc_hd__mux2_1 A0 A1 S VGND VNB VPB VPWR X
.ends

* Black-box entry subcircuit for sky130_fd_sc_hd__and3_1 abstract view
.subckt sky130_fd_sc_hd__and3_1 A B C VGND VNB VPB VPWR X
.ends

* Black-box entry subcircuit for sky130_fd_sc_hd__o221a_1 abstract view
.subckt sky130_fd_sc_hd__o221a_1 A1 A2 B1 B2 C1 VGND VNB VPB VPWR X
.ends

* Black-box entry subcircuit for sky130_fd_sc_hd__or4_1 abstract view
.subckt sky130_fd_sc_hd__or4_1 A B C D VGND VNB VPB VPWR X
.ends

* Black-box entry subcircuit for sky130_fd_sc_hd__clkbuf_4 abstract view
.subckt sky130_fd_sc_hd__clkbuf_4 A VGND VNB VPB VPWR X
.ends

* Black-box entry subcircuit for sky130_fd_sc_hd__buf_2 abstract view
.subckt sky130_fd_sc_hd__buf_2 A VGND VNB VPB VPWR X
.ends

* Black-box entry subcircuit for sky130_fd_sc_hd__clkbuf_2 abstract view
.subckt sky130_fd_sc_hd__clkbuf_2 A VGND VNB VPB VPWR X
.ends

* Black-box entry subcircuit for sky130_fd_sc_hd__a21oi_1 abstract view
.subckt sky130_fd_sc_hd__a21oi_1 A1 A2 B1 VGND VNB VPB VPWR Y
.ends

* Black-box entry subcircuit for sky130_fd_sc_hd__o21a_1 abstract view
.subckt sky130_fd_sc_hd__o21a_1 A1 A2 B1 VGND VNB VPB VPWR X
.ends

* Black-box entry subcircuit for sky130_fd_sc_hd__decap_4 abstract view
.subckt sky130_fd_sc_hd__decap_4 VGND VNB VPB VPWR
.ends

* Black-box entry subcircuit for sky130_fd_sc_hd__or2_2 abstract view
.subckt sky130_fd_sc_hd__or2_2 A B VGND VNB VPB VPWR X
.ends

* Black-box entry subcircuit for sky130_fd_sc_hd__fill_2 abstract view
.subckt sky130_fd_sc_hd__fill_2 VGND VNB VPB VPWR
.ends

* Black-box entry subcircuit for sky130_fd_sc_hd__o211a_1 abstract view
.subckt sky130_fd_sc_hd__o211a_1 A1 A2 B1 C1 VGND VNB VPB VPWR X
.ends

* Black-box entry subcircuit for sky130_fd_sc_hd__nand2_1 abstract view
.subckt sky130_fd_sc_hd__nand2_1 A B VGND VNB VPB VPWR Y
.ends

* Black-box entry subcircuit for sky130_fd_sc_hd__nor2_1 abstract view
.subckt sky130_fd_sc_hd__nor2_1 A B VGND VNB VPB VPWR Y
.ends

* Black-box entry subcircuit for sky130_fd_sc_hd__or3_1 abstract view
.subckt sky130_fd_sc_hd__or3_1 A B C VGND VNB VPB VPWR X
.ends

* Black-box entry subcircuit for sky130_fd_sc_hd__inv_2 abstract view
.subckt sky130_fd_sc_hd__inv_2 A VGND VNB VPB VPWR Y
.ends

* Black-box entry subcircuit for sky130_fd_sc_hd__a22oi_2 abstract view
.subckt sky130_fd_sc_hd__a22oi_2 A1 A2 B1 B2 VGND VNB VPB VPWR Y
.ends

* Black-box entry subcircuit for sky130_fd_sc_hd__o22a_1 abstract view
.subckt sky130_fd_sc_hd__o22a_1 A1 A2 B1 B2 VGND VNB VPB VPWR X
.ends

* Black-box entry subcircuit for sky130_fd_sc_hd__a21o_1 abstract view
.subckt sky130_fd_sc_hd__a21o_1 A1 A2 B1 VGND VNB VPB VPWR X
.ends

* Black-box entry subcircuit for sky130_fd_sc_hd__nor3_1 abstract view
.subckt sky130_fd_sc_hd__nor3_1 A B C VGND VNB VPB VPWR Y
.ends

* Black-box entry subcircuit for sky130_fd_sc_hd__a2bb2o_1 abstract view
.subckt sky130_fd_sc_hd__a2bb2o_1 A1_N A2_N B1 B2 VGND VNB VPB VPWR X
.ends

* Black-box entry subcircuit for sky130_fd_sc_hd__and2b_1 abstract view
.subckt sky130_fd_sc_hd__and2b_1 A_N B VGND VNB VPB VPWR X
.ends

* Black-box entry subcircuit for sky130_fd_sc_hd__a22o_1 abstract view
.subckt sky130_fd_sc_hd__a22o_1 A1 A2 B1 B2 VGND VNB VPB VPWR X
.ends

* Black-box entry subcircuit for sky130_fd_sc_hd__a211oi_1 abstract view
.subckt sky130_fd_sc_hd__a211oi_1 A1 A2 B1 C1 VGND VNB VPB VPWR Y
.ends

* Black-box entry subcircuit for sky130_fd_sc_hd__dlygate4sd3_1 abstract view
.subckt sky130_fd_sc_hd__dlygate4sd3_1 A VGND VNB VPB VPWR X
.ends

* Black-box entry subcircuit for sky130_fd_sc_hd__o31a_1 abstract view
.subckt sky130_fd_sc_hd__o31a_1 A1 A2 A3 B1 VGND VNB VPB VPWR X
.ends

* Black-box entry subcircuit for sky130_fd_sc_hd__nand3_1 abstract view
.subckt sky130_fd_sc_hd__nand3_1 A B C VGND VNB VPB VPWR Y
.ends

* Black-box entry subcircuit for sky130_fd_sc_hd__buf_1 abstract view
.subckt sky130_fd_sc_hd__buf_1 A VGND VNB VPB VPWR X
.ends

* Black-box entry subcircuit for sky130_fd_sc_hd__and3_2 abstract view
.subckt sky130_fd_sc_hd__and3_2 A B C VGND VNB VPB VPWR X
.ends

* Black-box entry subcircuit for sky130_fd_sc_hd__or4b_1 abstract view
.subckt sky130_fd_sc_hd__or4b_1 A B C D_N VGND VNB VPB VPWR X
.ends

* Black-box entry subcircuit for sky130_fd_sc_hd__a31o_1 abstract view
.subckt sky130_fd_sc_hd__a31o_1 A1 A2 A3 B1 VGND VNB VPB VPWR X
.ends

* Black-box entry subcircuit for sky130_fd_sc_hd__nor2_2 abstract view
.subckt sky130_fd_sc_hd__nor2_2 A B VGND VNB VPB VPWR Y
.ends

* Black-box entry subcircuit for sky130_fd_sc_hd__or3_2 abstract view
.subckt sky130_fd_sc_hd__or3_2 A B C VGND VNB VPB VPWR X
.ends

* Black-box entry subcircuit for sky130_fd_sc_hd__xnor2_1 abstract view
.subckt sky130_fd_sc_hd__xnor2_1 A B VGND VNB VPB VPWR Y
.ends

* Black-box entry subcircuit for sky130_fd_sc_hd__a311o_1 abstract view
.subckt sky130_fd_sc_hd__a311o_1 A1 A2 A3 B1 C1 VGND VNB VPB VPWR X
.ends

* Black-box entry subcircuit for sky130_fd_sc_hd__o32a_1 abstract view
.subckt sky130_fd_sc_hd__o32a_1 A1 A2 A3 B1 B2 VGND VNB VPB VPWR X
.ends

* Black-box entry subcircuit for sky130_fd_sc_hd__o311a_1 abstract view
.subckt sky130_fd_sc_hd__o311a_1 A1 A2 A3 B1 C1 VGND VNB VPB VPWR X
.ends

* Black-box entry subcircuit for sky130_fd_sc_hd__o41a_1 abstract view
.subckt sky130_fd_sc_hd__o41a_1 A1 A2 A3 A4 B1 VGND VNB VPB VPWR X
.ends

* Black-box entry subcircuit for sky130_fd_sc_hd__o2111a_1 abstract view
.subckt sky130_fd_sc_hd__o2111a_1 A1 A2 B1 C1 D1 VGND VNB VPB VPWR X
.ends

* Black-box entry subcircuit for sky130_fd_sc_hd__nor3_2 abstract view
.subckt sky130_fd_sc_hd__nor3_2 A B C VGND VNB VPB VPWR Y
.ends

* Black-box entry subcircuit for sky130_fd_sc_hd__a21bo_1 abstract view
.subckt sky130_fd_sc_hd__a21bo_1 A1 A2 B1_N VGND VNB VPB VPWR X
.ends

* Black-box entry subcircuit for sky130_fd_sc_hd__a2111o_1 abstract view
.subckt sky130_fd_sc_hd__a2111o_1 A1 A2 B1 C1 D1 VGND VNB VPB VPWR X
.ends

* Black-box entry subcircuit for sky130_fd_sc_hd__or3b_1 abstract view
.subckt sky130_fd_sc_hd__or3b_1 A B C_N VGND VNB VPB VPWR X
.ends

* Black-box entry subcircuit for sky130_fd_sc_hd__or4_2 abstract view
.subckt sky130_fd_sc_hd__or4_2 A B C D VGND VNB VPB VPWR X
.ends

* Black-box entry subcircuit for sky130_fd_sc_hd__and4_1 abstract view
.subckt sky130_fd_sc_hd__and4_1 A B C D VGND VNB VPB VPWR X
.ends

* Black-box entry subcircuit for sky130_fd_sc_hd__dfxtp_2 abstract view
.subckt sky130_fd_sc_hd__dfxtp_2 CLK D VGND VNB VPB VPWR Q
.ends

* Black-box entry subcircuit for sky130_fd_sc_hd__clkbuf_8 abstract view
.subckt sky130_fd_sc_hd__clkbuf_8 A VGND VNB VPB VPWR X
.ends

* Black-box entry subcircuit for sky130_fd_sc_hd__a211o_1 abstract view
.subckt sky130_fd_sc_hd__a211o_1 A1 A2 B1 C1 VGND VNB VPB VPWR X
.ends

* Black-box entry subcircuit for sky130_fd_sc_hd__o2bb2a_1 abstract view
.subckt sky130_fd_sc_hd__o2bb2a_1 A1_N A2_N B1 B2 VGND VNB VPB VPWR X
.ends

* Black-box entry subcircuit for sky130_fd_sc_hd__clkinvlp_4 abstract view
.subckt sky130_fd_sc_hd__clkinvlp_4 A VGND VNB VPB VPWR Y
.ends

* Black-box entry subcircuit for sky130_fd_sc_hd__o21bai_1 abstract view
.subckt sky130_fd_sc_hd__o21bai_1 A1 A2 B1_N VGND VNB VPB VPWR Y
.ends

* Black-box entry subcircuit for sky130_fd_sc_hd__a221o_1 abstract view
.subckt sky130_fd_sc_hd__a221o_1 A1 A2 B1 B2 C1 VGND VNB VPB VPWR X
.ends

* Black-box entry subcircuit for sky130_fd_sc_hd__or4bb_1 abstract view
.subckt sky130_fd_sc_hd__or4bb_1 A B C_N D_N VGND VNB VPB VPWR X
.ends

* Black-box entry subcircuit for sky130_fd_sc_hd__or4b_2 abstract view
.subckt sky130_fd_sc_hd__or4b_2 A B C D_N VGND VNB VPB VPWR X
.ends

* Black-box entry subcircuit for sky130_fd_sc_hd__and4bb_1 abstract view
.subckt sky130_fd_sc_hd__and4bb_1 A_N B_N C D VGND VNB VPB VPWR X
.ends

* Black-box entry subcircuit for sky130_fd_sc_hd__inv_6 abstract view
.subckt sky130_fd_sc_hd__inv_6 A VGND VNB VPB VPWR Y
.ends

* Black-box entry subcircuit for sky130_fd_sc_hd__a31oi_1 abstract view
.subckt sky130_fd_sc_hd__a31oi_1 A1 A2 A3 B1 VGND VNB VPB VPWR Y
.ends

* Black-box entry subcircuit for sky130_fd_sc_hd__nand3b_1 abstract view
.subckt sky130_fd_sc_hd__nand3b_1 A_N B C VGND VNB VPB VPWR Y
.ends

* Black-box entry subcircuit for sky130_fd_sc_hd__and3b_1 abstract view
.subckt sky130_fd_sc_hd__and3b_1 A_N B C VGND VNB VPB VPWR X
.ends

* Black-box entry subcircuit for sky130_fd_sc_hd__clkinv_8 abstract view
.subckt sky130_fd_sc_hd__clkinv_8 A VGND VNB VPB VPWR Y
.ends

* Black-box entry subcircuit for sky130_fd_sc_hd__a22oi_1 abstract view
.subckt sky130_fd_sc_hd__a22oi_1 A1 A2 B1 B2 VGND VNB VPB VPWR Y
.ends

* Black-box entry subcircuit for sky130_fd_sc_hd__a21boi_1 abstract view
.subckt sky130_fd_sc_hd__a21boi_1 A1 A2 B1_N VGND VNB VPB VPWR Y
.ends

* Black-box entry subcircuit for sky130_fd_sc_hd__clkinv_16 abstract view
.subckt sky130_fd_sc_hd__clkinv_16 A VGND VNB VPB VPWR Y
.ends

* Black-box entry subcircuit for sky130_fd_sc_hd__dlymetal6s2s_1 abstract view
.subckt sky130_fd_sc_hd__dlymetal6s2s_1 A VGND VNB VPB VPWR X
.ends

* Black-box entry subcircuit for sky130_fd_sc_hd__clkbuf_16 abstract view
.subckt sky130_fd_sc_hd__clkbuf_16 A VGND VNB VPB VPWR X
.ends

* Black-box entry subcircuit for sky130_fd_sc_hd__a32o_1 abstract view
.subckt sky130_fd_sc_hd__a32o_1 A1 A2 A3 B1 B2 VGND VNB VPB VPWR X
.ends

* Black-box entry subcircuit for sky130_fd_sc_hd__or4_4 abstract view
.subckt sky130_fd_sc_hd__or4_4 A B C D VGND VNB VPB VPWR X
.ends

* Black-box entry subcircuit for sky130_fd_sc_hd__inv_16 abstract view
.subckt sky130_fd_sc_hd__inv_16 A VGND VNB VPB VPWR Y
.ends

* Black-box entry subcircuit for sky130_fd_sc_hd__inv_12 abstract view
.subckt sky130_fd_sc_hd__inv_12 A VGND VNB VPB VPWR Y
.ends

* Black-box entry subcircuit for sky130_fd_sc_hd__mux4_1 abstract view
.subckt sky130_fd_sc_hd__mux4_1 A0 A1 A2 A3 S0 S1 VGND VNB VPB VPWR X
.ends

* Black-box entry subcircuit for sky130_fd_sc_hd__o21ba_1 abstract view
.subckt sky130_fd_sc_hd__o21ba_1 A1 A2 B1_N VGND VNB VPB VPWR X
.ends

* Black-box entry subcircuit for sky130_fd_sc_hd__nor4_1 abstract view
.subckt sky130_fd_sc_hd__nor4_1 A B C D VGND VNB VPB VPWR Y
.ends

* Black-box entry subcircuit for sky130_fd_sc_hd__mux2_2 abstract view
.subckt sky130_fd_sc_hd__mux2_2 A0 A1 S VGND VNB VPB VPWR X
.ends

* Black-box entry subcircuit for sky130_fd_sc_hd__bufinv_16 abstract view
.subckt sky130_fd_sc_hd__bufinv_16 A VGND VNB VPB VPWR Y
.ends

* Black-box entry subcircuit for sky130_fd_sc_hd__o31ai_1 abstract view
.subckt sky130_fd_sc_hd__o31ai_1 A1 A2 A3 B1 VGND VNB VPB VPWR Y
.ends

* Black-box entry subcircuit for sky130_fd_sc_hd__o211ai_1 abstract view
.subckt sky130_fd_sc_hd__o211ai_1 A1 A2 B1 C1 VGND VNB VPB VPWR Y
.ends

* Black-box entry subcircuit for sky130_fd_sc_hd__clkinv_2 abstract view
.subckt sky130_fd_sc_hd__clkinv_2 A VGND VNB VPB VPWR Y
.ends

* Black-box entry subcircuit for sky130_fd_sc_hd__inv_8 abstract view
.subckt sky130_fd_sc_hd__inv_8 A VGND VNB VPB VPWR Y
.ends

* Black-box entry subcircuit for sky130_fd_sc_hd__and4b_1 abstract view
.subckt sky130_fd_sc_hd__and4b_1 A_N B C D VGND VNB VPB VPWR X
.ends

* Black-box entry subcircuit for sky130_fd_sc_hd__or3_4 abstract view
.subckt sky130_fd_sc_hd__or3_4 A B C VGND VNB VPB VPWR X
.ends

* Black-box entry subcircuit for sky130_fd_sc_hd__clkbuf_1 abstract view
.subckt sky130_fd_sc_hd__clkbuf_1 A VGND VNB VPB VPWR X
.ends

* Black-box entry subcircuit for sky130_fd_sc_hd__nor2_4 abstract view
.subckt sky130_fd_sc_hd__nor2_4 A B VGND VNB VPB VPWR Y
.ends

* Black-box entry subcircuit for sky130_fd_sc_hd__nand2_2 abstract view
.subckt sky130_fd_sc_hd__nand2_2 A B VGND VNB VPB VPWR Y
.ends

* Black-box entry subcircuit for sky130_fd_sc_hd__nand4_2 abstract view
.subckt sky130_fd_sc_hd__nand4_2 A B C D VGND VNB VPB VPWR Y
.ends

* Black-box entry subcircuit for sky130_fd_sc_hd__or4bb_2 abstract view
.subckt sky130_fd_sc_hd__or4bb_2 A B C_N D_N VGND VNB VPB VPWR X
.ends

* Black-box entry subcircuit for sky130_fd_sc_hd__and2_2 abstract view
.subckt sky130_fd_sc_hd__and2_2 A B VGND VNB VPB VPWR X
.ends

* Black-box entry subcircuit for sky130_fd_sc_hd__a31oi_2 abstract view
.subckt sky130_fd_sc_hd__a31oi_2 A1 A2 A3 B1 VGND VNB VPB VPWR Y
.ends

* Black-box entry subcircuit for sky130_fd_sc_hd__buf_4 abstract view
.subckt sky130_fd_sc_hd__buf_4 A VGND VNB VPB VPWR X
.ends

* Black-box entry subcircuit for sky130_fd_sc_hd__o2111ai_1 abstract view
.subckt sky130_fd_sc_hd__o2111ai_1 A1 A2 B1 C1 D1 VGND VNB VPB VPWR Y
.ends

* Black-box entry subcircuit for sky130_fd_sc_hd__nand4_1 abstract view
.subckt sky130_fd_sc_hd__nand4_1 A B C D VGND VNB VPB VPWR Y
.ends

* Black-box entry subcircuit for sky130_fd_sc_hd__xor2_2 abstract view
.subckt sky130_fd_sc_hd__xor2_2 A B VGND VNB VPB VPWR X
.ends

* Black-box entry subcircuit for sky130_fd_sc_hd__nor3b_1 abstract view
.subckt sky130_fd_sc_hd__nor3b_1 A B C_N VGND VNB VPB VPWR Y
.ends

* Black-box entry subcircuit for sky130_fd_sc_hd__o21a_2 abstract view
.subckt sky130_fd_sc_hd__o21a_2 A1 A2 B1 VGND VNB VPB VPWR X
.ends

.subckt FP32_ADD VGND VPWR clk exp[0] exp[1] exp[2] exp[3] exp[4] exp[5] exp[6] exp[7]
+ expa[0] expa[1] expa[2] expa[3] expa[4] expa[5] expa[6] expa[7] expb[0] expb[1]
+ expb[2] expb[3] expb[4] expb[5] expb[6] expb[7] mantisaA[0] mantisaA[10] mantisaA[11]
+ mantisaA[12] mantisaA[13] mantisaA[14] mantisaA[15] mantisaA[16] mantisaA[17] mantisaA[18]
+ mantisaA[19] mantisaA[1] mantisaA[20] mantisaA[21] mantisaA[22] mantisaA[2] mantisaA[3]
+ mantisaA[4] mantisaA[5] mantisaA[6] mantisaA[7] mantisaA[8] mantisaA[9] mantisaB[0]
+ mantisaB[10] mantisaB[11] mantisaB[12] mantisaB[13] mantisaB[14] mantisaB[15] mantisaB[16]
+ mantisaB[17] mantisaB[18] mantisaB[19] mantisaB[1] mantisaB[20] mantisaB[21] mantisaB[22]
+ mantisaB[2] mantisaB[3] mantisaB[4] mantisaB[5] mantisaB[6] mantisaB[7] mantisaB[8]
+ mantisaB[9] mantisa[0] mantisa[10] mantisa[11] mantisa[12] mantisa[13] mantisa[14]
+ mantisa[15] mantisa[16] mantisa[17] mantisa[18] mantisa[19] mantisa[1] mantisa[20]
+ mantisa[21] mantisa[22] mantisa[2] mantisa[3] mantisa[4] mantisa[5] mantisa[6] mantisa[7]
+ mantisa[8] mantisa[9] op sign signa signb
XFILLER_79_391 VGND VGND VPWR VPWR sky130_fd_sc_hd__fill_1
XFILLER_36_19 VGND VGND VPWR VPWR sky130_fd_sc_hd__decap_8
XFILLER_39_266 VPWR VGND VPWR VGND sky130_ef_sc_hd__decap_12
X_3155_ _1042_ _1046_ VGND VGND VPWR VPWR _1047_ sky130_fd_sc_hd__xor2_1
X_2106_ net7 net15 VGND VGND VPWR VPWR _1767_ sky130_fd_sc_hd__nand2b_1
X_3086_ mantisaBshift\[26\] _0989_ net241 VGND VGND VPWR VPWR _0992_ sky130_fd_sc_hd__o21ai_1
X_2037_ expmiddled\[2\] expadd\[2\] VGND VGND VPWR VPWR _1728_ sky130_fd_sc_hd__or2_1
XTAP_TAPCELL_ROW_37_467 VGND VPWR sky130_fd_sc_hd__tapvpwrvgnd_1
X_3988_ clknet_leaf_26_clk net300 VGND VGND VPWR VPWR expmiddleb\[6\] sky130_fd_sc_hd__dfxtp_1
X_2939_ mantisaBshift\[3\] _0871_ VGND VGND VPWR VPWR _0872_ sky130_fd_sc_hd__xor2_1
XTAP_TAPCELL_ROW_20_334 VGND VPWR sky130_fd_sc_hd__tapvpwrvgnd_1
XFILLER_77_317 VPWR VGND VPWR VGND sky130_ef_sc_hd__decap_12
XFILLER_45_225 VGND VGND VPWR VPWR sky130_fd_sc_hd__decap_8
XFILLER_26_472 VGND VGND VPWR VPWR sky130_fd_sc_hd__fill_1
XFILLER_13_111 VGND VGND VPWR VPWR sky130_fd_sc_hd__fill_1
XFILLER_13_188 VGND VGND VPWR VPWR sky130_fd_sc_hd__decap_6
XFILLER_9_137 VGND VGND VPWR VPWR sky130_fd_sc_hd__decap_3
XTAP_TAPCELL_ROW_79_813 VGND VPWR sky130_fd_sc_hd__tapvpwrvgnd_1
XTAP_TAPCELL_ROW_79_802 VGND VPWR sky130_fd_sc_hd__tapvpwrvgnd_1
XFILLER_67_70 VGND VGND VPWR VPWR sky130_fd_sc_hd__fill_1
XFILLER_36_225 VPWR VGND VPWR VGND sky130_ef_sc_hd__decap_12
XFILLER_17_461 VPWR VGND VPWR VGND sky130_ef_sc_hd__decap_12
X_3911_ clknet_leaf_29_clk _0034_ VGND VGND VPWR VPWR expmiddle\[1\] sky130_fd_sc_hd__dfxtp_1
X_3842_ net192 _1613_ VGND VGND VPWR VPWR _0261_ sky130_fd_sc_hd__and2_1
X_3773_ _1545_ _1547_ net262 VGND VGND VPWR VPWR _1589_ sky130_fd_sc_hd__mux2_1
X_2724_ mantisaresult\[8\] net152 net130 VGND VGND VPWR VPWR _0667_ sky130_fd_sc_hd__and3_1
X_2655_ _1625_ _0580_ _0586_ _0597_ _0584_ VGND VGND VPWR VPWR _0598_ sky130_fd_sc_hd__o221a_1
X_2586_ _0426_ _0489_ _0521_ _0524_ VGND VGND VPWR VPWR _0529_ sky130_fd_sc_hd__or4_1
Xfanout116 net121 VGND VGND VPWR VPWR net116 sky130_fd_sc_hd__clkbuf_4
Xfanout138 net140 VGND VGND VPWR VPWR net138 sky130_fd_sc_hd__buf_2
Xfanout127 _0630_ VGND VGND VPWR VPWR net127 sky130_fd_sc_hd__clkbuf_2
Xfanout105 _1835_ VGND VGND VPWR VPWR net105 sky130_fd_sc_hd__clkbuf_2
XFILLER_59_328 VGND VGND VPWR VPWR sky130_fd_sc_hd__decap_8
Xfanout149 _0604_ VGND VGND VPWR VPWR net149 sky130_fd_sc_hd__buf_2
X_3207_ net244 _1092_ _1093_ VGND VGND VPWR VPWR _1094_ sky130_fd_sc_hd__a21oi_1
XFILLER_74_309 VPWR VGND VPWR VGND sky130_ef_sc_hd__decap_12
X_3138_ mantisaBshift\[36\] _1030_ net249 VGND VGND VPWR VPWR _1033_ sky130_fd_sc_hd__o21ai_1
X_3069_ _0972_ _0978_ net125 VGND VGND VPWR VPWR _0979_ sky130_fd_sc_hd__o21a_1
XFILLER_42_206 VGND VGND VPWR VPWR sky130_fd_sc_hd__fill_1
XFILLER_23_431 VGND VGND VPWR VPWR sky130_fd_sc_hd__decap_4
XFILLER_35_291 VGND VGND VPWR VPWR sky130_fd_sc_hd__decap_8
XFILLER_6_129 VGND VGND VPWR VPWR sky130_fd_sc_hd__decap_8
XFILLER_2_324 VGND VGND VPWR VPWR sky130_fd_sc_hd__fill_1
XFILLER_77_125 VPWR VGND VPWR VGND sky130_ef_sc_hd__decap_12
XFILLER_58_383 VGND VGND VPWR VPWR sky130_fd_sc_hd__decap_4
XFILLER_18_247 VGND VGND VPWR VPWR sky130_fd_sc_hd__decap_4
XFILLER_53_72 VGND VGND VPWR VPWR sky130_fd_sc_hd__fill_1
XTAP_TAPCELL_ROW_31_418 VGND VPWR sky130_fd_sc_hd__tapvpwrvgnd_1
X_2440_ mantisaresult\[36\] _0313_ _0318_ VGND VGND VPWR VPWR _0383_ sky130_fd_sc_hd__and3_1
X_2371_ mantisaresult\[32\] mantisaresult\[33\] VGND VGND VPWR VPWR _0314_ sky130_fd_sc_hd__or2_2
X_4110_ clknet_leaf_26_clk _0217_ VGND VGND VPWR VPWR mantisaBshift\[12\] sky130_fd_sc_hd__dfxtp_1
XFILLER_1_390 VGND VGND VPWR VPWR sky130_fd_sc_hd__fill_2
X_4041_ clknet_leaf_11_clk _0152_ VGND VGND VPWR VPWR mantisaresult\[43\] sky130_fd_sc_hd__dfxtp_1
XTAP_TAPCELL_ROW_47_551 VGND VPWR sky130_fd_sc_hd__tapvpwrvgnd_1
XFILLER_64_375 VGND VGND VPWR VPWR sky130_fd_sc_hd__decap_3
XFILLER_20_401 VGND VGND VPWR VPWR sky130_fd_sc_hd__decap_6
X_3825_ net252 _1544_ _1611_ net192 VGND VGND VPWR VPWR _1612_ sky130_fd_sc_hd__o211a_1
X_3756_ _1574_ _1575_ net256 VGND VGND VPWR VPWR _1576_ sky130_fd_sc_hd__mux2_1
X_2707_ mantisaresult\[33\] net156 VGND VGND VPWR VPWR _0650_ sky130_fd_sc_hd__nand2_1
X_3687_ _1422_ _1426_ net270 VGND VGND VPWR VPWR _1514_ sky130_fd_sc_hd__mux2_1
X_2638_ _0534_ _0554_ VGND VGND VPWR VPWR _0581_ sky130_fd_sc_hd__nor2_1
X_2569_ mantisaresult\[29\] _0293_ _0511_ VGND VGND VPWR VPWR _0512_ sky130_fd_sc_hd__or3_1
XFILLER_59_169 VGND VGND VPWR VPWR sky130_fd_sc_hd__fill_1
XFILLER_74_27 VGND VGND VPWR VPWR sky130_fd_sc_hd__fill_1
XTAP_TAPCELL_ROW_2_187 VGND VPWR sky130_fd_sc_hd__tapvpwrvgnd_1
XTAP_TAPCELL_ROW_53_598 VGND VPWR sky130_fd_sc_hd__tapvpwrvgnd_1
XFILLER_70_389 VPWR VGND VPWR VGND sky130_ef_sc_hd__decap_12
XFILLER_7_449 VPWR VGND VPWR VGND sky130_ef_sc_hd__decap_12
XFILLER_7_416 VGND VGND VPWR VPWR sky130_fd_sc_hd__fill_1
XFILLER_23_86 VGND VGND VPWR VPWR sky130_fd_sc_hd__decap_3
XFILLER_2_121 VPWR VGND VPWR VGND sky130_ef_sc_hd__decap_12
XFILLER_78_401 VPWR VGND VPWR VGND sky130_ef_sc_hd__decap_12
XFILLER_2_165 VPWR VGND VPWR VGND sky130_ef_sc_hd__decap_12
XFILLER_78_445 VPWR VGND VPWR VGND sky130_ef_sc_hd__decap_12
XFILLER_38_309 VGND VGND VPWR VPWR sky130_fd_sc_hd__fill_1
XFILLER_65_128 VGND VGND VPWR VPWR sky130_fd_sc_hd__decap_4
XFILLER_65_139 VPWR VGND VPWR VGND sky130_ef_sc_hd__decap_12
XFILLER_0_57 VGND VGND VPWR VPWR sky130_fd_sc_hd__decap_8
XFILLER_46_353 VGND VGND VPWR VPWR sky130_fd_sc_hd__decap_3
XTAP_TAPCELL_ROW_44_521 VGND VPWR sky130_fd_sc_hd__tapvpwrvgnd_1
XFILLER_61_345 VGND VGND VPWR VPWR sky130_fd_sc_hd__decap_8
XFILLER_61_367 VPWR VGND VPWR VGND sky130_ef_sc_hd__decap_12
XFILLER_14_250 VGND VGND VPWR VPWR sky130_fd_sc_hd__fill_2
X_1940_ mantisaresult\[20\] VGND VGND VPWR VPWR _1635_ sky130_fd_sc_hd__inv_2
XFILLER_9_77 VGND VGND VPWR VPWR sky130_fd_sc_hd__fill_1
XFILLER_9_55 VGND VGND VPWR VPWR sky130_fd_sc_hd__fill_1
X_3610_ mantisaB0\[10\] _1420_ _1440_ net273 VGND VGND VPWR VPWR _1441_ sky130_fd_sc_hd__a22oi_2
X_3541_ net333 net207 _1374_ _1376_ VGND VGND VPWR VPWR _0205_ sky130_fd_sc_hd__o22a_1
X_3472_ net349 net213 _1319_ VGND VGND VPWR VPWR _0192_ sky130_fd_sc_hd__a21o_1
X_2423_ _0331_ _0332_ _0365_ VGND VGND VPWR VPWR _0366_ sky130_fd_sc_hd__nor3_1
X_2354_ mantisaresult\[61\] mantisaresult\[60\] VGND VGND VPWR VPWR _0297_ sky130_fd_sc_hd__nor2_1
X_2285_ net27 _1911_ net101 VGND VGND VPWR VPWR _1912_ sky130_fd_sc_hd__mux2_1
X_4024_ clknet_leaf_23_clk _0135_ VGND VGND VPWR VPWR mantisaresult\[27\] sky130_fd_sc_hd__dfxtp_1
XFILLER_56_139 VGND VGND VPWR VPWR sky130_fd_sc_hd__fill_1
XFILLER_64_150 VGND VGND VPWR VPWR sky130_fd_sc_hd__decap_8
XFILLER_12_209 VGND VGND VPWR VPWR sky130_fd_sc_hd__fill_1
XFILLER_20_242 VGND VGND VPWR VPWR sky130_fd_sc_hd__fill_2
XFILLER_20_253 VPWR VGND VPWR VGND sky130_ef_sc_hd__decap_12
XTAP_TAPCELL_ROW_50_568 VGND VPWR sky130_fd_sc_hd__tapvpwrvgnd_1
X_3808_ net190 _1567_ VGND VGND VPWR VPWR _0242_ sky130_fd_sc_hd__nor2_1
XFILLER_60_29 VGND VGND VPWR VPWR sky130_fd_sc_hd__decap_6
XFILLER_20_297 VGND VGND VPWR VPWR sky130_fd_sc_hd__fill_1
X_3739_ net186 _1559_ _1561_ net184 VGND VGND VPWR VPWR _0218_ sky130_fd_sc_hd__a2bb2o_1
XFILLER_79_209 VPWR VGND VPWR VGND sky130_ef_sc_hd__decap_12
XTAP_TAPCELL_ROW_7_224 VGND VPWR sky130_fd_sc_hd__tapvpwrvgnd_1
XTAP_TAPCELL_ROW_58_635 VGND VPWR sky130_fd_sc_hd__tapvpwrvgnd_1
XFILLER_34_41 VGND VGND VPWR VPWR sky130_fd_sc_hd__fill_1
XTAP_TAPCELL_ROW_41_502 VGND VPWR sky130_fd_sc_hd__tapvpwrvgnd_1
XFILLER_70_197 VGND VGND VPWR VPWR sky130_fd_sc_hd__fill_1
XFILLER_3_441 VGND VGND VPWR VPWR sky130_fd_sc_hd__decap_6
XFILLER_78_253 VPWR VGND VPWR VGND sky130_ef_sc_hd__decap_12
XFILLER_15_6 VGND VGND VPWR VPWR sky130_fd_sc_hd__fill_2
X_2070_ net209 net340 VGND VGND VPWR VPWR _0010_ sky130_fd_sc_hd__and2b_1
X_2972_ mantisaresult\[6\] net231 _0899_ _0900_ VGND VGND VPWR VPWR _0112_ sky130_fd_sc_hd__a22o_1
XTAP_TAPCELL_ROW_12_270 VGND VPWR sky130_fd_sc_hd__tapvpwrvgnd_1
X_3524_ _0925_ _1359_ _1360_ net129 VGND VGND VPWR VPWR _1361_ sky130_fd_sc_hd__a211oi_1
X_3455_ _0850_ _1083_ _0854_ _0938_ VGND VGND VPWR VPWR _1312_ sky130_fd_sc_hd__a2bb2o_1
X_2406_ _0331_ _0332_ VGND VGND VPWR VPWR _0349_ sky130_fd_sc_hd__nor2_1
XTAP_TAPCELL_ROW_4_205 VGND VPWR sky130_fd_sc_hd__tapvpwrvgnd_1
X_3386_ mantisaAshift\[60\] mantisaBshift\[60\] VGND VGND VPWR VPWR _1256_ sky130_fd_sc_hd__and2_1
X_2337_ _0285_ net368 net171 VGND VGND VPWR VPWR _0092_ sky130_fd_sc_hd__mux2_1
X_2268_ _1900_ net283 net173 VGND VGND VPWR VPWR _0062_ sky130_fd_sc_hd__mux2_1
X_4007_ clknet_leaf_26_clk _0118_ VGND VGND VPWR VPWR mantisaresult\[12\] sky130_fd_sc_hd__dfxtp_1
XFILLER_55_18 VGND VGND VPWR VPWR sky130_fd_sc_hd__decap_8
X_2199_ net177 _1854_ _1855_ VGND VGND VPWR VPWR _0038_ sky130_fd_sc_hd__a21oi_1
XFILLER_25_334 VGND VGND VPWR VPWR sky130_fd_sc_hd__fill_2
XFILLER_25_389 VGND VGND VPWR VPWR sky130_fd_sc_hd__decap_3
XFILLER_52_175 VGND VGND VPWR VPWR sky130_fd_sc_hd__decap_3
XFILLER_71_28 VGND VGND VPWR VPWR sky130_fd_sc_hd__decap_4
XFILLER_20_32 VGND VGND VPWR VPWR sky130_fd_sc_hd__fill_1
Xhold41 expmiddleb\[0\] VGND VGND VPWR VPWR net315 sky130_fd_sc_hd__dlygate4sd3_1
XFILLER_48_404 VGND VGND VPWR VPWR sky130_fd_sc_hd__decap_6
Xhold30 mantisaA0\[2\] VGND VGND VPWR VPWR net304 sky130_fd_sc_hd__dlygate4sd3_1
Xhold52 four_man\[40\] VGND VGND VPWR VPWR net326 sky130_fd_sc_hd__dlygate4sd3_1
Xhold74 mantisaB0\[5\] VGND VGND VPWR VPWR net348 sky130_fd_sc_hd__dlygate4sd3_1
Xhold63 four_man\[59\] VGND VGND VPWR VPWR net337 sky130_fd_sc_hd__dlygate4sd3_1
Xhold85 expmiddled\[3\] VGND VGND VPWR VPWR net359 sky130_fd_sc_hd__dlygate4sd3_1
Xhold96 mantisaBshift\[35\] VGND VGND VPWR VPWR net370 sky130_fd_sc_hd__dlygate4sd3_1
XTAP_TAPCELL_ROW_18_318 VGND VPWR sky130_fd_sc_hd__tapvpwrvgnd_1
XFILLER_31_337 VGND VGND VPWR VPWR sky130_fd_sc_hd__decap_4
X_3240_ _1122_ VGND VGND VPWR VPWR _1123_ sky130_fd_sc_hd__inv_2
X_3171_ _1050_ _1053_ _1060_ VGND VGND VPWR VPWR _1061_ sky130_fd_sc_hd__a21o_1
XFILLER_13_3 VGND VGND VPWR VPWR sky130_fd_sc_hd__fill_2
X_2122_ net4 net12 VGND VGND VPWR VPWR _1783_ sky130_fd_sc_hd__and2b_1
XTAP_TAPCELL_ROW_77_785 VGND VPWR sky130_fd_sc_hd__tapvpwrvgnd_1
X_2053_ net212 _1741_ VGND VGND VPWR VPWR _0006_ sky130_fd_sc_hd__or2_1
X_2955_ net140 _0775_ _0886_ VGND VGND VPWR VPWR _0887_ sky130_fd_sc_hd__o21ai_1
XTAP_TAPCELL_ROW_60_652 VGND VPWR sky130_fd_sc_hd__tapvpwrvgnd_1
X_2886_ _0633_ _0814_ _0825_ net158 VGND VGND VPWR VPWR _0826_ sky130_fd_sc_hd__o211a_1
X_3507_ net325 net207 _1343_ _1345_ VGND VGND VPWR VPWR _0202_ sky130_fd_sc_hd__o22a_1
X_3438_ net331 net207 _1301_ _1303_ VGND VGND VPWR VPWR _0175_ sky130_fd_sc_hd__o22a_1
X_3369_ mantisaBshift\[57\] mantisaAshift\[57\] VGND VGND VPWR VPWR _1241_ sky130_fd_sc_hd__and2b_1
XFILLER_57_267 VGND VGND VPWR VPWR sky130_fd_sc_hd__fill_1
XFILLER_38_470 VGND VGND VPWR VPWR sky130_fd_sc_hd__decap_3
XFILLER_72_259 VGND VGND VPWR VPWR sky130_fd_sc_hd__fill_1
XFILLER_15_32 VGND VGND VPWR VPWR sky130_fd_sc_hd__decap_8
XFILLER_25_164 VGND VGND VPWR VPWR sky130_fd_sc_hd__decap_4
XFILLER_13_337 VGND VGND VPWR VPWR sky130_fd_sc_hd__decap_8
XTAP_TAPCELL_ROW_23_354 VGND VPWR sky130_fd_sc_hd__tapvpwrvgnd_1
XFILLER_40_189 VGND VGND VPWR VPWR sky130_fd_sc_hd__decap_6
Xoutput75 net75 VGND VGND VPWR VPWR mantisa[10] sky130_fd_sc_hd__buf_2
Xoutput86 net86 VGND VGND VPWR VPWR mantisa[20] sky130_fd_sc_hd__buf_2
Xoutput97 net97 VGND VGND VPWR VPWR sign sky130_fd_sc_hd__buf_2
XFILLER_36_418 VGND VGND VPWR VPWR sky130_fd_sc_hd__fill_2
XFILLER_56_83 VGND VGND VPWR VPWR sky130_fd_sc_hd__fill_1
XFILLER_56_94 VGND VGND VPWR VPWR sky130_fd_sc_hd__decap_3
XFILLER_63_259 VGND VGND VPWR VPWR sky130_fd_sc_hd__decap_8
XTAP_TAPCELL_ROW_74_766 VGND VPWR sky130_fd_sc_hd__tapvpwrvgnd_1
XFILLER_44_462 VGND VGND VPWR VPWR sky130_fd_sc_hd__decap_6
XFILLER_71_281 VPWR VGND VPWR VGND sky130_ef_sc_hd__decap_12
X_2740_ mantisaresult\[17\] net153 VGND VGND VPWR VPWR _0683_ sky130_fd_sc_hd__nand2_1
X_2671_ _1648_ _0610_ net130 _0613_ VGND VGND VPWR VPWR _0614_ sky130_fd_sc_hd__o31a_1
XFILLER_8_363 VGND VGND VPWR VPWR sky130_fd_sc_hd__fill_1
X_3223_ _1096_ _1100_ _1097_ VGND VGND VPWR VPWR _1108_ sky130_fd_sc_hd__o21ai_1
X_3154_ _1043_ _1045_ net249 VGND VGND VPWR VPWR _1046_ sky130_fd_sc_hd__mux2_1
X_2105_ net7 net15 VGND VGND VPWR VPWR _1766_ sky130_fd_sc_hd__and2b_1
X_3085_ _0990_ _0991_ net384 net233 VGND VGND VPWR VPWR _0134_ sky130_fd_sc_hd__a2bb2o_1
XFILLER_39_278 VGND VGND VPWR VPWR sky130_fd_sc_hd__fill_2
X_2036_ expmiddled\[2\] expadd\[2\] VGND VGND VPWR VPWR _1727_ sky130_fd_sc_hd__nand2_1
XFILLER_54_259 VPWR VGND VPWR VGND sky130_ef_sc_hd__decap_12
XTAP_TAPCELL_ROW_37_468 VGND VPWR sky130_fd_sc_hd__tapvpwrvgnd_1
XFILLER_22_134 VGND VGND VPWR VPWR sky130_fd_sc_hd__decap_6
XFILLER_50_454 VGND VGND VPWR VPWR sky130_fd_sc_hd__decap_8
X_3987_ clknet_leaf_17_clk _0103_ VGND VGND VPWR VPWR four_man\[44\] sky130_fd_sc_hd__dfxtp_1
X_2938_ mantisaBshift\[0\] mantisaBshift\[1\] mantisaBshift\[2\] net239 VGND VGND
+ VPWR VPWR _0871_ sky130_fd_sc_hd__o31a_1
XTAP_TAPCELL_ROW_20_335 VGND VPWR sky130_fd_sc_hd__tapvpwrvgnd_1
X_2869_ _0734_ _0736_ net120 VGND VGND VPWR VPWR _0809_ sky130_fd_sc_hd__mux2_1
XFILLER_77_329 VGND VGND VPWR VPWR sky130_fd_sc_hd__decap_6
XFILLER_26_97 VGND VGND VPWR VPWR sky130_fd_sc_hd__decap_6
XFILLER_41_421 VPWR VGND VPWR VGND sky130_ef_sc_hd__decap_12
XFILLER_53_281 VGND VGND VPWR VPWR sky130_fd_sc_hd__fill_1
XTAP_TAPCELL_ROW_71_736 VGND VPWR sky130_fd_sc_hd__tapvpwrvgnd_1
XFILLER_42_85 VGND VGND VPWR VPWR sky130_fd_sc_hd__decap_3
XTAP_TAPCELL_ROW_79_814 VGND VPWR sky130_fd_sc_hd__tapvpwrvgnd_1
XTAP_TAPCELL_ROW_79_803 VGND VPWR sky130_fd_sc_hd__tapvpwrvgnd_1
XFILLER_3_57 VPWR VGND VPWR VGND sky130_ef_sc_hd__decap_12
XFILLER_36_204 VPWR VGND VPWR VGND sky130_ef_sc_hd__decap_12
XFILLER_36_237 VPWR VGND VPWR VGND sky130_ef_sc_hd__decap_12
X_3910_ clknet_leaf_29_clk _0033_ VGND VGND VPWR VPWR expmiddle\[0\] sky130_fd_sc_hd__dfxtp_1
X_3841_ net189 _1610_ VGND VGND VPWR VPWR _0260_ sky130_fd_sc_hd__nor2_1
X_3772_ net186 _1588_ VGND VGND VPWR VPWR _0224_ sky130_fd_sc_hd__nor2_1