* NGSPICE file created from Reorder_buffer.ext - technology: sky130A

* Black-box entry subcircuit for sky130_fd_sc_hd__fill_1 abstract view
.subckt sky130_fd_sc_hd__fill_1 VGND VNB VPB VPWR
.ends

* Black-box entry subcircuit for sky130_fd_sc_hd__a211o_1 abstract view
.subckt sky130_fd_sc_hd__a211o_1 A1 A2 B1 C1 VGND VNB VPB VPWR X
.ends

* Black-box entry subcircuit for sky130_fd_sc_hd__decap_3 abstract view
.subckt sky130_fd_sc_hd__decap_3 VGND VNB VPB VPWR
.ends

* Black-box entry subcircuit for sky130_ef_sc_hd__decap_12 abstract view
.subckt sky130_ef_sc_hd__decap_12 VPWR VGND VPB VNB
.ends

* Black-box entry subcircuit for sky130_fd_sc_hd__decap_4 abstract view
.subckt sky130_fd_sc_hd__decap_4 VGND VNB VPB VPWR
.ends

* Black-box entry subcircuit for sky130_fd_sc_hd__a22o_1 abstract view
.subckt sky130_fd_sc_hd__a22o_1 A1 A2 B1 B2 VGND VNB VPB VPWR X
.ends

* Black-box entry subcircuit for sky130_fd_sc_hd__o21a_1 abstract view
.subckt sky130_fd_sc_hd__o21a_1 A1 A2 B1 VGND VNB VPB VPWR X
.ends

* Black-box entry subcircuit for sky130_fd_sc_hd__dfxtp_1 abstract view
.subckt sky130_fd_sc_hd__dfxtp_1 CLK D VGND VNB VPB VPWR Q
.ends

* Black-box entry subcircuit for sky130_fd_sc_hd__dlygate4sd3_1 abstract view
.subckt sky130_fd_sc_hd__dlygate4sd3_1 A VGND VNB VPB VPWR X
.ends

* Black-box entry subcircuit for sky130_fd_sc_hd__tapvpwrvgnd_1 abstract view
.subckt sky130_fd_sc_hd__tapvpwrvgnd_1 VGND VPWR
.ends

* Black-box entry subcircuit for sky130_fd_sc_hd__decap_8 abstract view
.subckt sky130_fd_sc_hd__decap_8 VGND VNB VPB VPWR
.ends

* Black-box entry subcircuit for sky130_fd_sc_hd__decap_6 abstract view
.subckt sky130_fd_sc_hd__decap_6 VGND VNB VPB VPWR
.ends

* Black-box entry subcircuit for sky130_fd_sc_hd__fill_2 abstract view
.subckt sky130_fd_sc_hd__fill_2 VGND VNB VPB VPWR
.ends

* Black-box entry subcircuit for sky130_fd_sc_hd__a221o_1 abstract view
.subckt sky130_fd_sc_hd__a221o_1 A1 A2 B1 B2 C1 VGND VNB VPB VPWR X
.ends

* Black-box entry subcircuit for sky130_fd_sc_hd__mux2_1 abstract view
.subckt sky130_fd_sc_hd__mux2_1 A0 A1 S VGND VNB VPB VPWR X
.ends

* Black-box entry subcircuit for sky130_fd_sc_hd__a2bb2o_1 abstract view
.subckt sky130_fd_sc_hd__a2bb2o_1 A1_N A2_N B1 B2 VGND VNB VPB VPWR X
.ends

* Black-box entry subcircuit for sky130_fd_sc_hd__and3_1 abstract view
.subckt sky130_fd_sc_hd__and3_1 A B C VGND VNB VPB VPWR X
.ends

* Black-box entry subcircuit for sky130_fd_sc_hd__and2_1 abstract view
.subckt sky130_fd_sc_hd__and2_1 A B VGND VNB VPB VPWR X
.ends

* Black-box entry subcircuit for sky130_fd_sc_hd__nand2_1 abstract view
.subckt sky130_fd_sc_hd__nand2_1 A B VGND VNB VPB VPWR Y
.ends

* Black-box entry subcircuit for sky130_fd_sc_hd__dlymetal6s2s_1 abstract view
.subckt sky130_fd_sc_hd__dlymetal6s2s_1 A VGND VNB VPB VPWR X
.ends

* Black-box entry subcircuit for sky130_fd_sc_hd__buf_1 abstract view
.subckt sky130_fd_sc_hd__buf_1 A VGND VNB VPB VPWR X
.ends

* Black-box entry subcircuit for sky130_fd_sc_hd__buf_2 abstract view
.subckt sky130_fd_sc_hd__buf_2 A VGND VNB VPB VPWR X
.ends

* Black-box entry subcircuit for sky130_fd_sc_hd__clkbuf_2 abstract view
.subckt sky130_fd_sc_hd__clkbuf_2 A VGND VNB VPB VPWR X
.ends

* Black-box entry subcircuit for sky130_fd_sc_hd__and3_2 abstract view
.subckt sky130_fd_sc_hd__and3_2 A B C VGND VNB VPB VPWR X
.ends

* Black-box entry subcircuit for sky130_fd_sc_hd__o22a_1 abstract view
.subckt sky130_fd_sc_hd__o22a_1 A1 A2 B1 B2 VGND VNB VPB VPWR X
.ends

* Black-box entry subcircuit for sky130_fd_sc_hd__buf_4 abstract view
.subckt sky130_fd_sc_hd__buf_4 A VGND VNB VPB VPWR X
.ends

* Black-box entry subcircuit for sky130_fd_sc_hd__nor2_1 abstract view
.subckt sky130_fd_sc_hd__nor2_1 A B VGND VNB VPB VPWR Y
.ends

* Black-box entry subcircuit for sky130_fd_sc_hd__or2_4 abstract view
.subckt sky130_fd_sc_hd__or2_4 A B VGND VNB VPB VPWR X
.ends

* Black-box entry subcircuit for sky130_fd_sc_hd__nand3b_1 abstract view
.subckt sky130_fd_sc_hd__nand3b_1 A_N B C VGND VNB VPB VPWR Y
.ends

* Black-box entry subcircuit for sky130_fd_sc_hd__diode_2 abstract view
.subckt sky130_fd_sc_hd__diode_2 DIODE VGND VNB VPB VPWR
.ends

* Black-box entry subcircuit for sky130_fd_sc_hd__o211a_1 abstract view
.subckt sky130_fd_sc_hd__o211a_1 A1 A2 B1 C1 VGND VNB VPB VPWR X
.ends

* Black-box entry subcircuit for sky130_fd_sc_hd__clkbuf_4 abstract view
.subckt sky130_fd_sc_hd__clkbuf_4 A VGND VNB VPB VPWR X
.ends

* Black-box entry subcircuit for sky130_fd_sc_hd__clkbuf_16 abstract view
.subckt sky130_fd_sc_hd__clkbuf_16 A VGND VNB VPB VPWR X
.ends

* Black-box entry subcircuit for sky130_fd_sc_hd__and3b_2 abstract view
.subckt sky130_fd_sc_hd__and3b_2 A_N B C VGND VNB VPB VPWR X
.ends

* Black-box entry subcircuit for sky130_fd_sc_hd__or2_1 abstract view
.subckt sky130_fd_sc_hd__or2_1 A B VGND VNB VPB VPWR X
.ends

* Black-box entry subcircuit for sky130_fd_sc_hd__clkbuf_8 abstract view
.subckt sky130_fd_sc_hd__clkbuf_8 A VGND VNB VPB VPWR X
.ends

* Black-box entry subcircuit for sky130_fd_sc_hd__nor4_2 abstract view
.subckt sky130_fd_sc_hd__nor4_2 A B C D VGND VNB VPB VPWR Y
.ends

* Black-box entry subcircuit for sky130_fd_sc_hd__nor2_2 abstract view
.subckt sky130_fd_sc_hd__nor2_2 A B VGND VNB VPB VPWR Y
.ends

* Black-box entry subcircuit for sky130_fd_sc_hd__o21ai_4 abstract view
.subckt sky130_fd_sc_hd__o21ai_4 A1 A2 B1 VGND VNB VPB VPWR Y
.ends

* Black-box entry subcircuit for sky130_fd_sc_hd__and2_2 abstract view
.subckt sky130_fd_sc_hd__and2_2 A B VGND VNB VPB VPWR X
.ends

* Black-box entry subcircuit for sky130_fd_sc_hd__xnor2_1 abstract view
.subckt sky130_fd_sc_hd__xnor2_1 A B VGND VNB VPB VPWR Y
.ends

* Black-box entry subcircuit for sky130_fd_sc_hd__or3_4 abstract view
.subckt sky130_fd_sc_hd__or3_4 A B C VGND VNB VPB VPWR X
.ends

* Black-box entry subcircuit for sky130_fd_sc_hd__a311o_1 abstract view
.subckt sky130_fd_sc_hd__a311o_1 A1 A2 A3 B1 C1 VGND VNB VPB VPWR X
.ends

* Black-box entry subcircuit for sky130_fd_sc_hd__or3_2 abstract view
.subckt sky130_fd_sc_hd__or3_2 A B C VGND VNB VPB VPWR X
.ends

* Black-box entry subcircuit for sky130_fd_sc_hd__nand2b_2 abstract view
.subckt sky130_fd_sc_hd__nand2b_2 A_N B VGND VNB VPB VPWR Y
.ends

* Black-box entry subcircuit for sky130_fd_sc_hd__and4b_1 abstract view
.subckt sky130_fd_sc_hd__and4b_1 A_N B C D VGND VNB VPB VPWR X
.ends

* Black-box entry subcircuit for sky130_fd_sc_hd__or3b_1 abstract view
.subckt sky130_fd_sc_hd__or3b_1 A B C_N VGND VNB VPB VPWR X
.ends

* Black-box entry subcircuit for sky130_fd_sc_hd__and2b_2 abstract view
.subckt sky130_fd_sc_hd__and2b_2 A_N B VGND VNB VPB VPWR X
.ends

* Black-box entry subcircuit for sky130_fd_sc_hd__inv_2 abstract view
.subckt sky130_fd_sc_hd__inv_2 A VGND VNB VPB VPWR Y
.ends

* Black-box entry subcircuit for sky130_fd_sc_hd__clkinv_4 abstract view
.subckt sky130_fd_sc_hd__clkinv_4 A VGND VNB VPB VPWR Y
.ends

* Black-box entry subcircuit for sky130_fd_sc_hd__and4b_4 abstract view
.subckt sky130_fd_sc_hd__and4b_4 A_N B C D VGND VNB VPB VPWR X
.ends

* Black-box entry subcircuit for sky130_fd_sc_hd__clkinvlp_4 abstract view
.subckt sky130_fd_sc_hd__clkinvlp_4 A VGND VNB VPB VPWR Y
.ends

* Black-box entry subcircuit for sky130_fd_sc_hd__a31o_1 abstract view
.subckt sky130_fd_sc_hd__a31o_1 A1 A2 A3 B1 VGND VNB VPB VPWR X
.ends

* Black-box entry subcircuit for sky130_fd_sc_hd__and2b_1 abstract view
.subckt sky130_fd_sc_hd__and2b_1 A_N B VGND VNB VPB VPWR X
.ends

* Black-box entry subcircuit for sky130_fd_sc_hd__o31a_1 abstract view
.subckt sky130_fd_sc_hd__o31a_1 A1 A2 A3 B1 VGND VNB VPB VPWR X
.ends

* Black-box entry subcircuit for sky130_fd_sc_hd__a21oi_1 abstract view
.subckt sky130_fd_sc_hd__a21oi_1 A1 A2 B1 VGND VNB VPB VPWR Y
.ends

* Black-box entry subcircuit for sky130_fd_sc_hd__clkinv_8 abstract view
.subckt sky130_fd_sc_hd__clkinv_8 A VGND VNB VPB VPWR Y
.ends

* Black-box entry subcircuit for sky130_fd_sc_hd__and2_4 abstract view
.subckt sky130_fd_sc_hd__and2_4 A B VGND VNB VPB VPWR X
.ends

* Black-box entry subcircuit for sky130_fd_sc_hd__dfxtp_2 abstract view
.subckt sky130_fd_sc_hd__dfxtp_2 CLK D VGND VNB VPB VPWR Q
.ends

* Black-box entry subcircuit for sky130_fd_sc_hd__bufinv_16 abstract view
.subckt sky130_fd_sc_hd__bufinv_16 A VGND VNB VPB VPWR Y
.ends

* Black-box entry subcircuit for sky130_fd_sc_hd__inv_6 abstract view
.subckt sky130_fd_sc_hd__inv_6 A VGND VNB VPB VPWR Y
.ends

* Black-box entry subcircuit for sky130_fd_sc_hd__or3_1 abstract view
.subckt sky130_fd_sc_hd__or3_1 A B C VGND VNB VPB VPWR X
.ends

* Black-box entry subcircuit for sky130_fd_sc_hd__o32a_1 abstract view
.subckt sky130_fd_sc_hd__o32a_1 A1 A2 A3 B1 B2 VGND VNB VPB VPWR X
.ends

* Black-box entry subcircuit for sky130_fd_sc_hd__nand4b_1 abstract view
.subckt sky130_fd_sc_hd__nand4b_1 A_N B C D VGND VNB VPB VPWR Y
.ends

* Black-box entry subcircuit for sky130_fd_sc_hd__inv_8 abstract view
.subckt sky130_fd_sc_hd__inv_8 A VGND VNB VPB VPWR Y
.ends

* Black-box entry subcircuit for sky130_fd_sc_hd__and4b_2 abstract view
.subckt sky130_fd_sc_hd__and4b_2 A_N B C D VGND VNB VPB VPWR X
.ends

* Black-box entry subcircuit for sky130_fd_sc_hd__o221a_4 abstract view
.subckt sky130_fd_sc_hd__o221a_4 A1 A2 B1 B2 C1 VGND VNB VPB VPWR X
.ends

* Black-box entry subcircuit for sky130_fd_sc_hd__nand2b_1 abstract view
.subckt sky130_fd_sc_hd__nand2b_1 A_N B VGND VNB VPB VPWR Y
.ends

* Black-box entry subcircuit for sky130_fd_sc_hd__or4bb_1 abstract view
.subckt sky130_fd_sc_hd__or4bb_1 A B C_N D_N VGND VNB VPB VPWR X
.ends

* Black-box entry subcircuit for sky130_fd_sc_hd__o21ai_1 abstract view
.subckt sky130_fd_sc_hd__o21ai_1 A1 A2 B1 VGND VNB VPB VPWR Y
.ends

* Black-box entry subcircuit for sky130_fd_sc_hd__clkinv_2 abstract view
.subckt sky130_fd_sc_hd__clkinv_2 A VGND VNB VPB VPWR Y
.ends

* Black-box entry subcircuit for sky130_fd_sc_hd__nor2_4 abstract view
.subckt sky130_fd_sc_hd__nor2_4 A B VGND VNB VPB VPWR Y
.ends

* Black-box entry subcircuit for sky130_fd_sc_hd__clkbuf_1 abstract view
.subckt sky130_fd_sc_hd__clkbuf_1 A VGND VNB VPB VPWR X
.ends

* Black-box entry subcircuit for sky130_fd_sc_hd__a21o_1 abstract view
.subckt sky130_fd_sc_hd__a21o_1 A1 A2 B1 VGND VNB VPB VPWR X
.ends

* Black-box entry subcircuit for sky130_fd_sc_hd__o311a_1 abstract view
.subckt sky130_fd_sc_hd__o311a_1 A1 A2 A3 B1 C1 VGND VNB VPB VPWR X
.ends

* Black-box entry subcircuit for sky130_fd_sc_hd__a32o_4 abstract view
.subckt sky130_fd_sc_hd__a32o_4 A1 A2 A3 B1 B2 VGND VNB VPB VPWR X
.ends

* Black-box entry subcircuit for sky130_fd_sc_hd__o211ai_1 abstract view
.subckt sky130_fd_sc_hd__o211ai_1 A1 A2 B1 C1 VGND VNB VPB VPWR Y
.ends

* Black-box entry subcircuit for sky130_fd_sc_hd__and4bb_1 abstract view
.subckt sky130_fd_sc_hd__and4bb_1 A_N B_N C D VGND VNB VPB VPWR X
.ends

* Black-box entry subcircuit for sky130_fd_sc_hd__and3b_4 abstract view
.subckt sky130_fd_sc_hd__and3b_4 A_N B C VGND VNB VPB VPWR X
.ends

* Black-box entry subcircuit for sky130_fd_sc_hd__and3_4 abstract view
.subckt sky130_fd_sc_hd__and3_4 A B C VGND VNB VPB VPWR X
.ends

* Black-box entry subcircuit for sky130_fd_sc_hd__and4_4 abstract view
.subckt sky130_fd_sc_hd__and4_4 A B C D VGND VNB VPB VPWR X
.ends

* Black-box entry subcircuit for sky130_fd_sc_hd__and3b_1 abstract view
.subckt sky130_fd_sc_hd__and3b_1 A_N B C VGND VNB VPB VPWR X
.ends

* Black-box entry subcircuit for sky130_fd_sc_hd__nand2_2 abstract view
.subckt sky130_fd_sc_hd__nand2_2 A B VGND VNB VPB VPWR Y
.ends

* Black-box entry subcircuit for sky130_fd_sc_hd__and4_1 abstract view
.subckt sky130_fd_sc_hd__and4_1 A B C D VGND VNB VPB VPWR X
.ends

* Black-box entry subcircuit for sky130_fd_sc_hd__a311oi_2 abstract view
.subckt sky130_fd_sc_hd__a311oi_2 A1 A2 A3 B1 C1 VGND VNB VPB VPWR Y
.ends

* Black-box entry subcircuit for sky130_fd_sc_hd__nor3b_1 abstract view
.subckt sky130_fd_sc_hd__nor3b_1 A B C_N VGND VNB VPB VPWR Y
.ends

* Black-box entry subcircuit for sky130_fd_sc_hd__a21boi_1 abstract view
.subckt sky130_fd_sc_hd__a21boi_1 A1 A2 B1_N VGND VNB VPB VPWR Y
.ends

* Black-box entry subcircuit for sky130_fd_sc_hd__mux4_1 abstract view
.subckt sky130_fd_sc_hd__mux4_1 A0 A1 A2 A3 S0 S1 VGND VNB VPB VPWR X
.ends

* Black-box entry subcircuit for sky130_fd_sc_hd__or2_2 abstract view
.subckt sky130_fd_sc_hd__or2_2 A B VGND VNB VPB VPWR X
.ends

* Black-box entry subcircuit for sky130_fd_sc_hd__o21a_2 abstract view
.subckt sky130_fd_sc_hd__o21a_2 A1 A2 B1 VGND VNB VPB VPWR X
.ends

* Black-box entry subcircuit for sky130_fd_sc_hd__or4b_2 abstract view
.subckt sky130_fd_sc_hd__or4b_2 A B C D_N VGND VNB VPB VPWR X
.ends

* Black-box entry subcircuit for sky130_fd_sc_hd__a21oi_2 abstract view
.subckt sky130_fd_sc_hd__a21oi_2 A1 A2 B1 VGND VNB VPB VPWR Y
.ends

* Black-box entry subcircuit for sky130_fd_sc_hd__or3b_2 abstract view
.subckt sky130_fd_sc_hd__or3b_2 A B C_N VGND VNB VPB VPWR X
.ends

* Black-box entry subcircuit for sky130_fd_sc_hd__or4b_1 abstract view
.subckt sky130_fd_sc_hd__or4b_1 A B C D_N VGND VNB VPB VPWR X
.ends

* Black-box entry subcircuit for sky130_fd_sc_hd__xor2_1 abstract view
.subckt sky130_fd_sc_hd__xor2_1 A B VGND VNB VPB VPWR X
.ends

* Black-box entry subcircuit for sky130_fd_sc_hd__nand3_1 abstract view
.subckt sky130_fd_sc_hd__nand3_1 A B C VGND VNB VPB VPWR Y
.ends

* Black-box entry subcircuit for sky130_fd_sc_hd__o2bb2a_1 abstract view
.subckt sky130_fd_sc_hd__o2bb2a_1 A1_N A2_N B1 B2 VGND VNB VPB VPWR X
.ends

* Black-box entry subcircuit for sky130_fd_sc_hd__a31o_2 abstract view
.subckt sky130_fd_sc_hd__a31o_2 A1 A2 A3 B1 VGND VNB VPB VPWR X
.ends

.subckt Reorder_buffer VGND VPWR clk control[0] control[1] data_location[0] data_location[1]
+ data_location[2] data_location[3] done enable_write[0] enable_write[1] enable_write[2]
+ out[0] out[10] out[11] out[12] out[13] out[14] out[15] out[16] out[17] out[18] out[19]
+ out[1] out[20] out[21] out[22] out[23] out[24] out[25] out[26] out[27] out[28] out[29]
+ out[2] out[30] out[31] out[3] out[4] out[5] out[6] out[7] out[8] out[9] reset success
+ value0[0] value0[10] value0[11] value0[12] value0[13] value0[14] value0[15] value0[16]
+ value0[17] value0[18] value0[19] value0[1] value0[20] value0[21] value0[22] value0[23]
+ value0[24] value0[25] value0[26] value0[27] value0[28] value0[29] value0[2] value0[30]
+ value0[31] value0[3] value0[4] value0[5] value0[6] value0[7] value0[8] value0[9]
+ value1[0] value1[10] value1[11] value1[12] value1[13] value1[14] value1[15] value1[16]
+ value1[17] value1[18] value1[19] value1[1] value1[20] value1[21] value1[22] value1[23]
+ value1[24] value1[25] value1[26] value1[27] value1[28] value1[29] value1[2] value1[30]
+ value1[31] value1[3] value1[4] value1[5] value1[6] value1[7] value1[8] value1[9]
+ value2[0] value2[10] value2[11] value2[12] value2[13] value2[14] value2[15] value2[16]
+ value2[17] value2[18] value2[19] value2[1] value2[20] value2[21] value2[22] value2[23]
+ value2[24] value2[25] value2[26] value2[27] value2[28] value2[29] value2[2] value2[30]
+ value2[31] value2[3] value2[4] value2[5] value2[6] value2[7] value2[8] value2[9]
+ value[0] value[1] value[2] value[3] write_location0[0] write_location0[1] write_location0[2]
+ write_location0[3] write_location1[0] write_location1[1] write_location1[2] write_location1[3]
+ write_location2[0] write_location2[1] write_location2[2] write_location2[3]
XFILLER_79_391 VGND VGND VPWR VPWR sky130_fd_sc_hd__fill_1
X_3155_ net728 net186 _1279_ net190 VGND VGND VPWR VPWR _1280_ sky130_fd_sc_hd__a211o_1
XFILLER_39_277 VGND VGND VPWR VPWR sky130_fd_sc_hd__decap_3
XFILLER_82_545 VPWR VGND VPWR VGND sky130_ef_sc_hd__decap_12
X_3086_ net718 net186 _1233_ net190 VGND VGND VPWR VPWR _1234_ sky130_fd_sc_hd__a211o_1
XFILLER_35_483 VGND VGND VPWR VPWR sky130_fd_sc_hd__decap_4
XFILLER_22_122 VPWR VGND VPWR VGND sky130_ef_sc_hd__decap_12
XFILLER_52_18 VGND VGND VPWR VPWR sky130_fd_sc_hd__decap_4
X_3988_ net351 _1901_ _1905_ net355 VGND VGND VPWR VPWR _1908_ sky130_fd_sc_hd__a22o_1
XFILLER_50_475 VGND VGND VPWR VPWR sky130_fd_sc_hd__fill_1
X_2939_ net1135 net201 _1126_ VGND VGND VPWR VPWR _0096_ sky130_fd_sc_hd__o21a_1
X_4609_ clknet_leaf_8_clk _0140_ VGND VGND VPWR VPWR array\[14\]\[6\] sky130_fd_sc_hd__dfxtp_1
Xhold362 array\[15\]\[30\] VGND VGND VPWR VPWR net1128 sky130_fd_sc_hd__dlygate4sd3_1
XFILLER_89_111 VGND VGND VPWR VPWR sky130_fd_sc_hd__fill_1
Xhold340 array\[11\]\[18\] VGND VGND VPWR VPWR net1106 sky130_fd_sc_hd__dlygate4sd3_1
Xhold351 array\[2\]\[3\] VGND VGND VPWR VPWR net1117 sky130_fd_sc_hd__dlygate4sd3_1
Xhold373 array\[15\]\[1\] VGND VGND VPWR VPWR net1139 sky130_fd_sc_hd__dlygate4sd3_1
Xhold395 array\[0\]\[10\] VGND VGND VPWR VPWR net1161 sky130_fd_sc_hd__dlygate4sd3_1
Xhold384 array\[2\]\[22\] VGND VGND VPWR VPWR net1150 sky130_fd_sc_hd__dlygate4sd3_1
XFILLER_45_225 VGND VGND VPWR VPWR sky130_fd_sc_hd__fill_1
XFILLER_93_69 VPWR VGND VPWR VGND sky130_ef_sc_hd__decap_12
XTAP_TAPCELL_ROW_56_765 VGND VPWR sky130_fd_sc_hd__tapvpwrvgnd_1
XTAP_TAPCELL_ROW_28_489 VGND VPWR sky130_fd_sc_hd__tapvpwrvgnd_1
XFILLER_9_104 VGND VGND VPWR VPWR sky130_fd_sc_hd__decap_8
XTAP_TAPCELL_ROW_11_312 VGND VPWR sky130_fd_sc_hd__tapvpwrvgnd_1
XFILLER_9_137 VGND VGND VPWR VPWR sky130_fd_sc_hd__decap_6
XFILLER_5_376 VGND VGND VPWR VPWR sky130_fd_sc_hd__fill_1
XFILLER_68_306 VGND VGND VPWR VPWR sky130_fd_sc_hd__fill_2
XFILLER_3_45 VGND VGND VPWR VPWR sky130_fd_sc_hd__fill_1
XFILLER_76_361 VGND VGND VPWR VPWR sky130_fd_sc_hd__decap_3
XFILLER_67_92 VGND VGND VPWR VPWR sky130_fd_sc_hd__fill_1
XFILLER_36_247 VGND VGND VPWR VPWR sky130_fd_sc_hd__decap_4
X_3911_ net416 _1832_ _1836_ net353 net214 VGND VGND VPWR VPWR _1838_ sky130_fd_sc_hd__a221o_1
X_4891_ clknet_leaf_55_clk _0422_ VGND VGND VPWR VPWR array\[6\]\[2\] sky130_fd_sc_hd__dfxtp_1
X_3842_ net355 _1769_ _1773_ net415 net214 VGND VGND VPWR VPWR _1775_ sky130_fd_sc_hd__a221o_1
XFILLER_32_497 VGND VGND VPWR VPWR sky130_fd_sc_hd__fill_2
X_3773_ net355 _1705_ _1709_ net351 VGND VGND VPWR VPWR _1712_ sky130_fd_sc_hd__a22o_1
X_2724_ net1063 _0980_ net293 VGND VGND VPWR VPWR _0027_ sky130_fd_sc_hd__mux2_1
X_2655_ _0630_ _0856_ _0860_ _0931_ VGND VGND VPWR VPWR _0933_ sky130_fd_sc_hd__a2bb2o_1
X_2586_ net700 net401 net508 VGND VGND VPWR VPWR _0887_ sky130_fd_sc_hd__and3_1
X_4325_ net1250 net223 net337 net722 _2164_ VGND VGND VPWR VPWR _0448_ sky130_fd_sc_hd__a221o_1
XFILLER_47_18 VGND VGND VPWR VPWR sky130_fd_sc_hd__decap_6
X_4256_ net572 net428 net331 net642 net221 VGND VGND VPWR VPWR _2121_ sky130_fd_sc_hd__a221o_1
XFILLER_74_309 VGND VGND VPWR VPWR sky130_fd_sc_hd__decap_6
X_4187_ net755 net234 VGND VGND VPWR VPWR _2074_ sky130_fd_sc_hd__and2_1
X_3207_ net837 _1317_ net157 VGND VGND VPWR VPWR _0173_ sky130_fd_sc_hd__mux2_1
X_3138_ net1272 net162 _1268_ VGND VGND VPWR VPWR _0153_ sky130_fd_sc_hd__o21a_1
XFILLER_70_526 VGND VGND VPWR VPWR sky130_fd_sc_hd__decap_6
X_3069_ net267 _1218_ VGND VGND VPWR VPWR _1219_ sky130_fd_sc_hd__nand2_1
XFILLER_63_28 VGND VGND VPWR VPWR sky130_fd_sc_hd__fill_2
XTAP_TAPCELL_ROW_81_1012 VGND VPWR sky130_fd_sc_hd__tapvpwrvgnd_1
XFILLER_42_239 VGND VGND VPWR VPWR sky130_fd_sc_hd__fill_2
XTAP_TAPCELL_ROW_53_735 VGND VPWR sky130_fd_sc_hd__tapvpwrvgnd_1
XTAP_TAPCELL_ROW_25_459 VGND VPWR sky130_fd_sc_hd__tapvpwrvgnd_1
XFILLER_23_486 VGND VGND VPWR VPWR sky130_fd_sc_hd__decap_4
XFILLER_6_118 VPWR VGND VPWR VGND sky130_ef_sc_hd__decap_12
Xhold170 net137 VGND VGND VPWR VPWR net936 sky130_fd_sc_hd__dlygate4sd3_1
Xhold181 array\[2\]\[17\] VGND VGND VPWR VPWR net947 sky130_fd_sc_hd__dlygate4sd3_1
Xhold192 array\[3\]\[25\] VGND VGND VPWR VPWR net958 sky130_fd_sc_hd__dlygate4sd3_1
Xfanout650 net60 VGND VGND VPWR VPWR net650 sky130_fd_sc_hd__dlymetal6s2s_1
Xfanout694 net41 VGND VGND VPWR VPWR net694 sky130_fd_sc_hd__buf_1
Xfanout683 net46 VGND VGND VPWR VPWR net683 sky130_fd_sc_hd__buf_2
Xfanout661 net57 VGND VGND VPWR VPWR net661 sky130_fd_sc_hd__buf_2
Xfanout672 net52 VGND VGND VPWR VPWR net672 sky130_fd_sc_hd__clkbuf_2
XTAP_TAPCELL_ROW_69_890 VGND VPWR sky130_fd_sc_hd__tapvpwrvgnd_1
XFILLER_58_372 VGND VGND VPWR VPWR sky130_fd_sc_hd__decap_8
XFILLER_37_84 VGND VGND VPWR VPWR sky130_fd_sc_hd__fill_1
XFILLER_73_386 VGND VGND VPWR VPWR sky130_fd_sc_hd__fill_1
XFILLER_14_442 VGND VGND VPWR VPWR sky130_fd_sc_hd__fill_2
XFILLER_14_475 VGND VGND VPWR VPWR sky130_fd_sc_hd__fill_1
X_2440_ _0586_ _0627_ _0780_ VGND VGND VPWR VPWR _0782_ sky130_fd_sc_hd__and3_2
XFILLER_52_6 VPWR VGND VPWR VGND sky130_ef_sc_hd__decap_12
X_2371_ net1296 net208 _0735_ VGND VGND VPWR VPWR _0499_ sky130_fd_sc_hd__o21a_1
X_4110_ array\[13\]\[30\] net555 net540 array\[15\]\[30\] _2018_ VGND VGND VPWR VPWR
+ _2019_ sky130_fd_sc_hd__a221o_1
XFILLER_56_309 VGND VGND VPWR VPWR sky130_fd_sc_hd__decap_4
X_4041_ array\[10\]\[24\] net470 net453 array\[8\]\[24\] VGND VGND VPWR VPWR _1956_
+ sky130_fd_sc_hd__a22o_1
XFILLER_32_250 VGND VGND VPWR VPWR sky130_fd_sc_hd__fill_2
XTAP_TAPCELL_ROW_50_705 VGND VPWR sky130_fd_sc_hd__tapvpwrvgnd_1
X_4874_ clknet_leaf_23_clk _0405_ VGND VGND VPWR VPWR array\[7\]\[17\] sky130_fd_sc_hd__dfxtp_1
XTAP_TAPCELL_ROW_22_429 VGND VPWR sky130_fd_sc_hd__tapvpwrvgnd_1
X_3825_ array\[9\]\[5\] net556 net540 array\[11\]\[5\] _1758_ VGND VGND VPWR VPWR
+ _1759_ sky130_fd_sc_hd__a221o_1
XFILLER_20_434 VGND VGND VPWR VPWR sky130_fd_sc_hd__decap_8
X_3756_ net719 net349 net421 VGND VGND VPWR VPWR _1698_ sky130_fd_sc_hd__and3_1
X_2707_ net683 net611 net394 VGND VGND VPWR VPWR _0969_ sky130_fd_sc_hd__mux2_1
X_3687_ net707 net350 net422 VGND VGND VPWR VPWR _1653_ sky130_fd_sc_hd__and3_1
X_2638_ net583 net512 net398 net659 VGND VGND VPWR VPWR _0921_ sky130_fd_sc_hd__a22o_1
X_2569_ net571 net510 net396 net641 net301 VGND VGND VPWR VPWR _0876_ sky130_fd_sc_hd__a221o_1
X_4308_ net734 net335 VGND VGND VPWR VPWR _2154_ sky130_fd_sc_hd__and2_1
X_4239_ net1143 net226 _2107_ _2108_ VGND VGND VPWR VPWR _0418_ sky130_fd_sc_hd__o22a_1
XFILLER_28_545 VPWR VGND VPWR VGND sky130_ef_sc_hd__decap_12
XFILLER_55_331 VGND VGND VPWR VPWR sky130_fd_sc_hd__decap_4
XTAP_TAPCELL_ROW_66_860 VGND VPWR sky130_fd_sc_hd__tapvpwrvgnd_1
XTAP_TAPCELL_ROW_38_584 VGND VPWR sky130_fd_sc_hd__tapvpwrvgnd_1
XFILLER_90_15 VPWR VGND VPWR VGND sky130_ef_sc_hd__decap_12
XFILLER_11_445 VGND VGND VPWR VPWR sky130_fd_sc_hd__decap_3
XFILLER_23_53 VGND VGND VPWR VPWR sky130_fd_sc_hd__decap_3
XFILLER_7_449 VPWR VGND VPWR VGND sky130_ef_sc_hd__decap_12
XFILLER_2_165 VGND VGND VPWR VPWR sky130_fd_sc_hd__fill_1
Xfanout491 _1221_ VGND VGND VPWR VPWR net491 sky130_fd_sc_hd__buf_4
XFILLER_48_83 VGND VGND VPWR VPWR sky130_fd_sc_hd__fill_1
Xfanout480 _1435_ VGND VGND VPWR VPWR net480 sky130_fd_sc_hd__buf_2
XFILLER_0_57 VGND VGND VPWR VPWR sky130_fd_sc_hd__fill_2
XFILLER_46_397 VGND VGND VPWR VPWR sky130_fd_sc_hd__decap_3
XFILLER_9_55 VGND VGND VPWR VPWR sky130_fd_sc_hd__fill_1
X_3610_ net560 head\[0\] VGND VGND VPWR VPWR _1594_ sky130_fd_sc_hd__nor2_1
X_4590_ clknet_leaf_51_clk _0121_ VGND VGND VPWR VPWR array\[15\]\[19\] sky130_fd_sc_hd__dfxtp_1
X_3541_ net611 net474 net361 net683 net253 VGND VGND VPWR VPWR _1547_ sky130_fd_sc_hd__a221o_1
X_3472_ net939 net262 _1498_ VGND VGND VPWR VPWR _0257_ sky130_fd_sc_hd__o21a_1
XFILLER_88_209 VGND VGND VPWR VPWR sky130_fd_sc_hd__fill_2
X_2423_ net583 net659 net519 VGND VGND VPWR VPWR _0770_ sky130_fd_sc_hd__mux2_1
X_2354_ net569 net639 net518 VGND VGND VPWR VPWR _0724_ sky130_fd_sc_hd__mux2_1
XFILLER_84_437 VGND VGND VPWR VPWR sky130_fd_sc_hd__decap_3
X_2285_ net684 net612 net523 VGND VGND VPWR VPWR _0675_ sky130_fd_sc_hd__mux2_1
XFILLER_56_106 VGND VGND VPWR VPWR sky130_fd_sc_hd__fill_1
X_4024_ net355 _1935_ _1939_ net435 net213 VGND VGND VPWR VPWR _1941_ sky130_fd_sc_hd__a221o_1
XFILLER_37_397 VGND VGND VPWR VPWR sky130_fd_sc_hd__fill_1
XTAP_TAPCELL_ROW_63_830 VGND VPWR sky130_fd_sc_hd__tapvpwrvgnd_1
XTAP_TAPCELL_ROW_35_554 VGND VPWR sky130_fd_sc_hd__tapvpwrvgnd_1
X_4857_ clknet_leaf_56_clk _0388_ VGND VGND VPWR VPWR array\[7\]\[0\] sky130_fd_sc_hd__dfxtp_1
XFILLER_60_18 VGND VGND VPWR VPWR sky130_fd_sc_hd__decap_8
X_3808_ net353 _1737_ _1741_ net437 VGND VGND VPWR VPWR _1744_ sky130_fd_sc_hd__a22o_1
XFILLER_60_29 VPWR VGND VPWR VGND sky130_ef_sc_hd__decap_12
X_4788_ clknet_leaf_4_clk _0319_ VGND VGND VPWR VPWR array\[9\]\[6\] sky130_fd_sc_hd__dfxtp_1
XFILLER_4_419 VGND VGND VPWR VPWR sky130_fd_sc_hd__fill_1
X_3739_ net593 net426 net347 net667 net244 VGND VGND VPWR VPWR _1687_ sky130_fd_sc_hd__a221o_1
XFILLER_69_27 VPWR VGND VPWR VGND sky130_ef_sc_hd__decap_12
XFILLER_87_231 VGND VGND VPWR VPWR sky130_fd_sc_hd__fill_1
XFILLER_85_15 VPWR VGND VPWR VGND sky130_ef_sc_hd__decap_12
XTAP_TAPCELL_ROW_7_279 VGND VPWR sky130_fd_sc_hd__tapvpwrvgnd_1
XFILLER_87_297 VGND VGND VPWR VPWR sky130_fd_sc_hd__decap_4
XFILLER_87_275 VGND VGND VPWR VPWR sky130_fd_sc_hd__decap_4
XFILLER_47_106 VGND VGND VPWR VPWR sky130_fd_sc_hd__decap_6
XFILLER_28_342 VGND VGND VPWR VPWR sky130_fd_sc_hd__fill_2
XFILLER_90_418 VGND VGND VPWR VPWR sky130_fd_sc_hd__fill_2
XTAP_TAPCELL_ROW_87_1073 VGND VPWR sky130_fd_sc_hd__tapvpwrvgnd_1
XFILLER_55_183 VGND VGND VPWR VPWR sky130_fd_sc_hd__decap_6
XFILLER_34_41 VGND VGND VPWR VPWR sky130_fd_sc_hd__decap_8
XFILLER_34_85 VGND VGND VPWR VPWR sky130_fd_sc_hd__fill_2
XFILLER_3_441 VGND VGND VPWR VPWR sky130_fd_sc_hd__decap_6
XFILLER_3_485 VPWR VGND VPWR VGND sky130_ef_sc_hd__decap_12
XFILLER_38_117 VGND VGND VPWR VPWR sky130_fd_sc_hd__fill_1
XFILLER_66_448 VGND VGND VPWR VPWR sky130_fd_sc_hd__decap_3
XFILLER_93_289 VGND VGND VPWR VPWR sky130_fd_sc_hd__fill_2
XTAP_TAPCELL_ROW_77_977 VGND VPWR sky130_fd_sc_hd__tapvpwrvgnd_1
X_2972_ net697 net625 net493 VGND VGND VPWR VPWR _1154_ sky130_fd_sc_hd__mux2_1
XTAP_TAPCELL_ROW_60_800 VGND VPWR sky130_fd_sc_hd__tapvpwrvgnd_1
XTAP_TAPCELL_ROW_32_524 VGND VPWR sky130_fd_sc_hd__tapvpwrvgnd_1
X_4711_ clknet_leaf_18_clk _0242_ VGND VGND VPWR VPWR array\[11\]\[12\] sky130_fd_sc_hd__dfxtp_1
X_4642_ clknet_leaf_60_clk _0173_ VGND VGND VPWR VPWR array\[13\]\[7\] sky130_fd_sc_hd__dfxtp_1
X_4573_ clknet_leaf_34_clk _0104_ VGND VGND VPWR VPWR array\[15\]\[2\] sky130_fd_sc_hd__dfxtp_1
X_3524_ net607 net245 _1535_ net254 VGND VGND VPWR VPWR _1536_ sky130_fd_sc_hd__a211o_1
XFILLER_89_529 VPWR VGND VPWR VGND sky130_ef_sc_hd__decap_12
X_3455_ net595 net477 net363 net669 VGND VGND VPWR VPWR _1487_ sky130_fd_sc_hd__a22o_1
X_2406_ net735 net315 _0758_ net406 net312 VGND VGND VPWR VPWR _0759_ sky130_fd_sc_hd__a221o_1
XFILLER_69_242 VGND VGND VPWR VPWR sky130_fd_sc_hd__decap_4
X_3386_ net654 _1438_ VGND VGND VPWR VPWR _1440_ sky130_fd_sc_hd__or2_4
X_2337_ net103 net104 _0637_ VGND VGND VPWR VPWR _0711_ sky130_fd_sc_hd__nand3b_1
XTAP_TAPCELL_ROW_4_249 VGND VPWR sky130_fd_sc_hd__tapvpwrvgnd_1
X_2268_ net607 net319 _0663_ net410 net327 VGND VGND VPWR VPWR _0664_ sky130_fd_sc_hd__a221o_1
XFILLER_84_289 VPWR VGND VPWR VGND sky130_ef_sc_hd__decap_12
X_4007_ array\[6\]\[21\] net458 net441 array\[4\]\[21\] VGND VGND VPWR VPWR _1925_
+ sky130_fd_sc_hd__a22o_1
XFILLER_55_18 VPWR VGND VPWR VGND sky130_ef_sc_hd__decap_12
XFILLER_65_481 VGND VGND VPWR VPWR sky130_fd_sc_hd__fill_2
X_2199_ net560 head\[0\] VGND VGND VPWR VPWR _0608_ sky130_fd_sc_hd__and2_1
XFILLER_37_183 VGND VGND VPWR VPWR sky130_fd_sc_hd__decap_3
XFILLER_13_529 VPWR VGND VPWR VGND sky130_ef_sc_hd__decap_12
XFILLER_71_39 VPWR VGND VPWR VGND sky130_ef_sc_hd__decap_12
XFILLER_21_540 VGND VGND VPWR VPWR sky130_fd_sc_hd__fill_2
X_4909_ clknet_leaf_6_clk _0440_ VGND VGND VPWR VPWR array\[6\]\[20\] sky130_fd_sc_hd__dfxtp_1
XFILLER_0_433 VGND VGND VPWR VPWR sky130_fd_sc_hd__decap_4
Xhold30 array\[13\]\[20\] VGND VGND VPWR VPWR net796 sky130_fd_sc_hd__dlygate4sd3_1
XFILLER_0_477 VPWR VGND VPWR VGND sky130_ef_sc_hd__decap_12
Xhold41 array\[2\]\[1\] VGND VGND VPWR VPWR net807 sky130_fd_sc_hd__dlygate4sd3_1
Xhold74 net129 VGND VGND VPWR VPWR net840 sky130_fd_sc_hd__dlygate4sd3_1
Xhold52 array\[15\]\[9\] VGND VGND VPWR VPWR net818 sky130_fd_sc_hd__dlygate4sd3_1
Xhold63 array\[8\]\[28\] VGND VGND VPWR VPWR net829 sky130_fd_sc_hd__dlygate4sd3_1
Xhold96 array\[10\]\[8\] VGND VGND VPWR VPWR net862 sky130_fd_sc_hd__dlygate4sd3_1
Xhold85 array\[15\]\[28\] VGND VGND VPWR VPWR net851 sky130_fd_sc_hd__dlygate4sd3_1
XFILLER_90_237 VGND VGND VPWR VPWR sky130_fd_sc_hd__fill_2
XTAP_TAPCELL_ROW_74_947 VGND VPWR sky130_fd_sc_hd__tapvpwrvgnd_1
XFILLER_28_194 VGND VGND VPWR VPWR sky130_fd_sc_hd__fill_2
XFILLER_45_73 VGND VGND VPWR VPWR sky130_fd_sc_hd__fill_1
XFILLER_8_533 VPWR VGND VPWR VGND sky130_ef_sc_hd__decap_12
XFILLER_6_45 VPWR VGND VPWR VGND sky130_ef_sc_hd__decap_12
XANTENNA_5 _0782_ VGND VGND VPWR VPWR sky130_fd_sc_hd__diode_2
X_3240_ net798 _1339_ net159 VGND VGND VPWR VPWR _0184_ sky130_fd_sc_hd__mux2_1
XFILLER_3_293 VPWR VGND VPWR VGND sky130_ef_sc_hd__decap_12
XFILLER_94_510 VPWR VGND VPWR VGND sky130_ef_sc_hd__decap_12
X_3171_ net957 net163 _1290_ VGND VGND VPWR VPWR _0164_ sky130_fd_sc_hd__o21a_1
XFILLER_39_404 VGND VGND VPWR VPWR sky130_fd_sc_hd__decap_3
XFILLER_13_3 VPWR VGND VPWR VGND sky130_ef_sc_hd__decap_12
XTAP_TAPCELL_ROW_1_219 VGND VPWR sky130_fd_sc_hd__tapvpwrvgnd_1
XFILLER_54_418 VGND VGND VPWR VPWR sky130_fd_sc_hd__fill_2
XFILLER_81_237 VGND VGND VPWR VPWR sky130_fd_sc_hd__decap_3
XFILLER_62_462 VPWR VGND VPWR VGND sky130_ef_sc_hd__decap_12
XTAP_TAPCELL_ROW_17_373 VGND VPWR sky130_fd_sc_hd__tapvpwrvgnd_1
XFILLER_34_197 VGND VGND VPWR VPWR sky130_fd_sc_hd__decap_3
X_2955_ tail\[1\] net104 _0626_ VGND VGND VPWR VPWR _1137_ sky130_fd_sc_hd__mux2_1
X_2886_ net759 net628 net498 VGND VGND VPWR VPWR _1091_ sky130_fd_sc_hd__mux2_1
X_4625_ clknet_leaf_60_clk _0156_ VGND VGND VPWR VPWR array\[14\]\[22\] sky130_fd_sc_hd__dfxtp_1
X_4556_ clknet_leaf_23_clk _0087_ VGND VGND VPWR VPWR array\[0\]\[17\] sky130_fd_sc_hd__dfxtp_1
Xhold511 array\[0\]\[19\] VGND VGND VPWR VPWR net1277 sky130_fd_sc_hd__dlygate4sd3_1
Xhold500 array\[1\]\[29\] VGND VGND VPWR VPWR net1266 sky130_fd_sc_hd__dlygate4sd3_1
Xhold522 array\[8\]\[5\] VGND VGND VPWR VPWR net1288 sky130_fd_sc_hd__dlygate4sd3_1