*SPEF "ieee 1481-1999"
*DESIGN "FP32_ADD"
*DATE "23:55:03 Monday March 09, 2026"
*VENDOR "The OpenROAD Project"
*PROGRAM "OpenROAD"
*VERSION "edf00dff99f6c40d67a30c0e22a8191c5d2ed9d6"
*DESIGN_FLOW "NAME_SCOPE LOCAL" "PIN_CAP NONE"
*DIVIDER /
*DELIMITER :
*BUS_DELIMITER []
*T_UNIT 1 NS
*C_UNIT 1 PF
*R_UNIT 1 OHM
*L_UNIT 1 HENRY

*NAME_MAP
*3 clk
*4 exp[0]
*5 exp[1]
*6 exp[2]
*7 exp[3]
*8 exp[4]
*9 exp[5]
*10 exp[6]
*11 exp[7]
*12 expa[0]
*13 expa[1]
*14 expa[2]
*15 expa[3]
*16 expa[4]
*17 expa[5]
*18 expa[6]
*19 expa[7]
*20 expb[0]
*21 expb[1]
*22 expb[2]
*23 expb[3]
*24 expb[4]
*25 expb[5]
*26 expb[6]
*27 expb[7]
*28 mantisaA[0]
*29 mantisaA[10]
*30 mantisaA[11]
*31 mantisaA[12]
*32 mantisaA[13]
*33 mantisaA[14]
*34 mantisaA[15]
*35 mantisaA[16]
*36 mantisaA[17]
*37 mantisaA[18]
*38 mantisaA[19]
*39 mantisaA[1]
*40 mantisaA[20]
*41 mantisaA[21]
*42 mantisaA[22]
*43 mantisaA[2]
*44 mantisaA[3]
*45 mantisaA[4]
*46 mantisaA[5]
*47 mantisaA[6]
*48 mantisaA[7]
*49 mantisaA[8]
*50 mantisaA[9]
*51 mantisaB[0]
*52 mantisaB[10]
*53 mantisaB[11]
*54 mantisaB[12]
*55 mantisaB[13]
*56 mantisaB[14]
*57 mantisaB[15]
*58 mantisaB[16]
*59 mantisaB[17]
*60 mantisaB[18]
*61 mantisaB[19]
*62 mantisaB[1]
*63 mantisaB[20]
*64 mantisaB[21]
*65 mantisaB[22]
*66 mantisaB[2]
*67 mantisaB[3]
*68 mantisaB[4]
*69 mantisaB[5]
*70 mantisaB[6]
*71 mantisaB[7]
*72 mantisaB[8]
*73 mantisaB[9]
*74 mantisa[0]
*75 mantisa[10]
*76 mantisa[11]
*77 mantisa[12]
*78 mantisa[13]
*79 mantisa[14]
*80 mantisa[15]
*81 mantisa[16]
*82 mantisa[17]
*83 mantisa[18]
*84 mantisa[19]
*85 mantisa[1]
*86 mantisa[20]
*87 mantisa[21]
*88 mantisa[22]
*89 mantisa[2]
*90 mantisa[3]
*91 mantisa[4]
*92 mantisa[5]
*93 mantisa[6]
*94 mantisa[7]
*95 mantisa[8]
*96 mantisa[9]
*97 op
*98 sign
*99 signa
*100 signb
*101 _0000_
*102 _0001_
*103 _0002_
*104 _0003_
*105 _0004_
*106 _0005_
*107 _0006_
*108 _0007_
*109 _0008_
*110 _0009_
*111 _0010_
*112 _0011_
*113 _0012_
*114 _0013_
*115 _0014_
*116 _0015_
*117 _0016_
*118 _0017_
*119 _0018_
*120 _0019_
*121 _0020_
*122 _0021_
*123 _0022_
*124 _0023_
*125 _0024_
*126 _0025_
*127 _0026_
*128 _0027_
*129 _0028_
*130 _0029_
*131 _0030_
*132 _0031_
*133 _0032_
*134 _0033_
*135 _0034_
*136 _0035_
*137 _0036_
*138 _0037_
*139 _0038_
*140 _0039_
*141 _0040_
*142 _0041_
*143 _0042_
*144 _0043_
*145 _0044_
*146 _0045_
*147 _0046_
*148 _0047_
*149 _0048_
*150 _0049_
*151 _0050_
*152 _0051_
*153 _0052_
*154 _0053_
*155 _0054_
*156 _0055_
*157 _0056_
*158 _0057_
*159 _0058_
*160 _0059_
*161 _0060_
*162 _0061_
*163 _0062_
*164 _0063_
*165 _0064_
*166 _0065_
*167 _0066_
*168 _0067_
*169 _0068_
*170 _0069_
*171 _0070_
*172 _0071_
*173 _0072_
*174 _0073_
*175 _0074_
*176 _0075_
*177 _0076_
*178 _0077_
*179 _0078_
*180 _0079_
*181 _0080_
*182 _0081_
*183 _0082_
*184 _0083_
*185 _0084_
*186 _0085_
*187 _0086_
*188 _0087_
*189 _0088_
*190 _0089_
*191 _0090_
*192 _0091_
*193 _0092_
*194 _0093_
*195 _0094_
*196 _0095_
*197 _0096_
*198 _0097_
*199 _0098_
*200 _0099_
*201 _0100_
*202 _0101_
*203 _0102_
*204 _0103_
*205 _0104_
*206 _0105_
*207 _0106_
*208 _0107_
*209 _0108_
*210 _0109_
*211 _0110_
*212 _0111_
*213 _0112_
*214 _0113_
*215 _0114_
*216 _0115_
*217 _0116_
*218 _0117_
*219 _0118_
*220 _0119_
*221 _0120_
*222 _0121_
*223 _0122_
*224 _0123_
*225 _0124_
*226 _0125_
*227 _0126_
*228 _0127_
*229 _0128_
*230 _0129_
*231 _0130_
*232 _0131_
*233 _0132_
*234 _0133_
*235 _0134_
*236 _0135_
*237 _0136_
*238 _0137_
*239 _0138_
*240 _0139_
*241 _0140_
*242 _0141_
*243 _0142_
*244 _0143_
*245 _0144_
*246 _0145_
*247 _0146_
*248 _0147_
*249 _0148_
*250 _0149_
*251 _0150_
*252 _0151_
*253 _0152_
*254 _0153_
*255 _0154_
*256 _0155_
*257 _0156_
*258 _0157_
*259 _0158_
*260 _0159_
*261 _0160_
*262 _0161_
*263 _0162_
*264 _0163_
*265 _0164_
*266 _0165_
*267 _0166_
*268 _0167_
*269 _0168_
*270 _0169_
*271 _0170_
*272 _0171_
*273 _0172_
*274 _0173_
*275 _0174_
*276 _0175_
*277 _0176_
*278 _0177_
*279 _0178_
*280 _0179_
*281 _0180_
*282 _0181_
*283 _0182_
*284 _0183_
*285 _0184_
*286 _0185_
*287 _0186_
*288 _0187_
*289 _0188_
*290 _0189_
*291 _0190_
*292 _0191_
*293 _0192_
*294 _0193_
*295 _0194_
*296 _0195_
*297 _0196_
*298 _0197_
*299 _0198_
*300 _0199_
*301 _0200_
*302 _0201_
*303 _0202_
*304 _0203_
*305 _0204_
*306 _0205_
*307 _0206_
*308 _0207_
*309 _0208_
*310 _0209_
*311 _0210_
*312 _0211_
*313 _0212_
*314 _0213_
*315 _0214_
*316 _0215_
*317 _0216_
*318 _0217_
*319 _0218_
*320 _0219_
*321 _0220_
*322 _0221_
*323 _0222_
*324 _0223_
*325 _0224_
*326 _0225_
*327 _0226_
*328 _0227_
*329 _0228_
*330 _0229_
*331 _0230_
*332 _0231_
*333 _0232_
*334 _0233_
*335 _0234_
*336 _0235_
*337 _0236_
*338 _0237_
*339 _0238_
*340 _0239_
*341 _0240_
*342 _0241_
*343 _0242_
*344 _0243_
*345 _0244_
*346 _0245_
*347 _0246_
*348 _0247_
*349 _0248_
*350 _0249_
*351 _0250_
*352 _0251_
*353 _0252_
*354 _0253_
*355 _0254_
*356 _0255_
*357 _0256_
*358 _0257_
*359 _0258_
*360 _0259_
*361 _0260_
*362 _0261_
*363 _0262_
*364 _0263_
*365 _0264_
*366 _0265_
*367 _0266_
*368 _0267_
*369 _0268_
*370 _0269_
*371 _0270_
*372 _0271_
*373 _0272_
*374 _0273_
*375 _0274_
*376 _0275_
*377 _0276_
*378 _0277_
*379 _0278_
*380 _0279_
*381 _0280_
*382 _0281_
*383 _0282_
*384 _0283_
*385 _0284_
*386 _0285_
*387 _0286_
*388 _0287_
*389 _0288_
*390 _0289_
*391 _0290_
*392 _0291_
*393 _0292_
*394 _0293_
*395 _0294_
*396 _0295_
*397 _0296_
*398 _0297_
*399 _0298_
*400 _0299_
*401 _0300_
*402 _0301_
*403 _0302_
*404 _0303_
*405 _0304_
*406 _0305_
*407 _0306_
*408 _0307_
*409 _0308_
*410 _0309_
*411 _0310_
*412 _0311_
*413 _0312_
*414 _0313_
*415 _0314_
*416 _0315_
*417 _0316_
*418 _0317_
*419 _0318_
*420 _0319_
*421 _0320_
*422 _0321_
*423 _0322_
*424 _0323_
*425 _0324_
*426 _0325_
*427 _0326_
*428 _0327_
*429 _0328_
*430 _0329_
*431 _0330_
*432 _0331_
*433 _0332_
*434 _0333_
*435 _0334_
*436 _0335_
*437 _0336_
*438 _0337_
*439 _0338_
*440 _0339_
*441 _0340_
*442 _0341_
*443 _0342_
*444 _0343_
*445 _0344_
*446 _0345_
*447 _0346_
*448 _0347_
*449 _0348_
*450 _0349_
*451 _0350_
*452 _0351_
*453 _0352_
*454 _0353_
*455 _0354_
*456 _0355_
*457 _0356_
*458 _0357_
*459 _0358_
*460 _0359_
*461 _0360_
*462 _0361_
*463 _0362_
*464 _0363_
*465 _0364_
*466 _0365_
*467 _0366_
*468 _0367_
*469 _0368_
*470 _0369_
*471 _0370_
*472 _0371_
*473 _0372_
*474 _0373_
*475 _0374_
*476 _0375_
*477 _0376_
*478 _0377_
*479 _0378_
*480 _0379_
*481 _0380_
*482 _0381_
*483 _0382_
*484 _0383_
*485 _0384_
*486 _0385_
*487 _0386_
*488 _0387_
*489 _0388_
*490 _0389_
*491 _0390_
*492 _0391_
*493 _0392_
*494 _0393_
*495 _0394_
*496 _0395_
*497 _0396_
*498 _0397_
*499 _0398_
*500 _0399_
*501 _0400_
*502 _0401_
*503 _0402_
*504 _0403_
*505 _0404_
*506 _0405_
*507 _0406_
*508 _0407_
*509 _0408_
*510 _0409_
*511 _0410_
*512 _0411_
*513 _0412_
*514 _0413_
*515 _0414_
*516 _0415_
*517 _0416_
*518 _0417_
*519 _0418_
*520 _0419_
*521 _0420_
*522 _0421_
*523 _0422_
*524 _0423_
*525 _0424_
*526 _0425_
*527 _0426_
*528 _0427_
*529 _0428_
*530 _0429_
*531 _0430_
*532 _0431_
*533 _0432_
*534 _0433_
*535 _0434_
*536 _0435_
*537 _0436_
*538 _0437_
*539 _0438_
*540 _0439_
*541 _0440_
*542 _0441_
*543 _0442_
*544 _0443_
*545 _0444_
*546 _0445_
*547 _0446_
*548 _0447_
*549 _0448_
*550 _0449_
*551 _0450_
*552 _0451_
*553 _0452_
*554 _0453_
*555 _0454_
*556 _0455_
*557 _0456_
*558 _0457_
*559 _0458_
*560 _0459_
*561 _0460_
*562 _0461_
*563 _0462_
*564 _0463_
*565 _0464_
*566 _0465_
*567 _0466_
*568 _0467_
*569 _0468_
*570 _0469_
*571 _0470_
*572 _0471_
*573 _0472_
*574 _0473_
*575 _0474_
*576 _0475_
*577 _0476_
*578 _0477_
*579 _0478_
*580 _0479_
*581 _0480_
*582 _0481_
*583 _0482_
*584 _0483_
*585 _0484_
*586 _0485_
*587 _0486_
*588 _0487_
*589 _0488_
*590 _0489_
*591 _0490_
*592 _0491_
*593 _0492_
*594 _0493_
*595 _0494_
*596 _0495_
*597 _0496_
*598 _0497_
*599 _0498_
*600 _0499_
*601 _0500_
*602 _0501_
*603 _0502_
*604 _0503_
*605 _0504_
*606 _0505_
*607 _0506_
*608 _0507_
*609 _0508_
*610 _0509_
*611 _0510_
*612 _0511_
*613 _0512_
*614 _0513_
*615 _0514_
*616 _0515_
*617 _0516_
*618 _0517_
*619 _0518_
*620 _0519_
*621 _0520_
*622 _0521_
*623 _0522_
*624 _0523_
*625 _0524_
*626 _0525_
*627 _0526_
*628 _0527_
*629 _0528_
*630 _0529_
*631 _0530_
*632 _0531_
*633 _0532_
*634 _0533_
*635 _0534_
*636 _0535_
*637 _0536_
*638 _0537_
*639 _0538_
*640 _0539_
*641 _0540_
*642 _0541_
*643 _0542_
*644 _0543_
*645 _0544_
*646 _0545_
*647 _0546_
*648 _0547_
*649 _0548_
*650 _0549_
*651 _0550_
*652 _0551_
*653 _0552_
*654 _0553_
*655 _0554_
*656 _0555_
*657 _0556_
*658 _0557_
*659 _0558_
*660 _0559_
*661 _0560_
*662 _0561_
*663 _0562_
*664 _0563_
*665 _0564_
*666 _0565_
*667 _0566_
*668 _0567_
*669 _0568_
*670 _0569_
*671 _0570_
*672 _0571_
*673 _0572_
*674 _0573_
*675 _0574_
*676 _0575_
*677 _0576_
*678 _0577_
*679 _0578_
*680 _0579_
*681 _0580_
*682 _0581_
*683 _0582_
*684 _0583_
*685 _0584_
*686 _0585_
*687 _0586_
*688 _0587_
*689 _0588_
*690 _0589_
*691 _0590_
*692 _0591_
*693 _0592_
*694 _0593_
*695 _0594_
*696 _0595_
*697 _0596_
*698 _0597_
*699 _0598_
*700 _0599_
*701 _0600_
*702 _0601_
*703 _0602_
*704 _0603_
*705 _0604_
*706 _0605_
*707 _0606_
*708 _0607_
*709 _0608_
*710 _0609_
*711 _0610_
*712 _0611_
*713 _0612_
*714 _0613_
*715 _0614_
*716 _0615_
*717 _0616_
*718 _0617_
*719 _0618_
*720 _0619_
*721 _0620_
*722 _0621_
*723 _0622_
*724 _0623_
*725 _0624_
*726 _0625_
*727 _0626_
*728 _0627_
*729 _0628_
*730 _0629_
*731 _0630_
*732 _0631_
*733 _0632_
*734 _0633_
*735 _0634_
*736 _0635_
*737 _0636_
*738 _0637_
*739 _0638_
*740 _0639_
*741 _0640_
*742 _0641_
*743 _0642_
*744 _0643_
*745 _0644_
*746 _0645_
*747 _0646_
*748 _0647_
*749 _0648_
*750 _0649_
*751 _0650_
*752 _0651_
*753 _0652_
*754 _0653_
*755 _0654_
*756 _0655_
*757 _0656_
*758 _0657_
*759 _0658_
*760 _0659_
*761 _0660_
*762 _0661_
*763 _0662_
*764 _0663_
*765 _0664_
*766 _0665_
*767 _0666_
*768 _0667_
*769 _0668_
*770 _0669_
*771 _0670_
*772 _0671_
*773 _0672_
*774 _0673_
*775 _0674_
*776 _0675_
*777 _0676_
*778 _0677_
*779 _0678_
*780 _0679_
*781 _0680_
*782 _0681_
*783 _0682_
*784 _0683_
*785 _0684_
*786 _0685_
*787 _0686_
*788 _0687_
*789 _0688_
*790 _0689_
*791 _0690_
*792 _0691_
*793 _0692_
*794 _0693_
*795 _0694_
*796 _0695_
*797 _0696_
*798 _0697_
*799 _0698_
*800 _0699_
*801 _0700_
*802 _0701_
*803 _0702_
*804 _0703_
*805 _0704_
*806 _0705_
*807 _0706_
*808 _0707_
*809 _0708_
*810 _0709_
*811 _0710_
*812 _0711_
*813 _0712_
*814 _0713_
*815 _0714_
*816 _0715_
*817 _0716_
*818 _0717_
*819 _0718_
*820 _0719_
*821 _0720_
*822 _0721_
*823 _0722_
*824 _0723_
*825 _0724_
*826 _0725_
*827 _0726_
*828 _0727_
*829 _0728_
*830 _0729_
*831 _0730_
*832 _0731_
*833 _0732_
*834 _0733_
*835 _0734_
*836 _0735_
*837 _0736_
*838 _0737_
*839 _0738_
*840 _0739_
*841 _0740_
*842 _0741_
*843 _0742_
*844 _0743_
*845 _0744_
*846 _0745_
*847 _0746_
*848 _0747_
*849 _0748_
*850 _0749_
*851 _0750_
*852 _0751_
*853 _0752_
*854 _0753_
*855 _0754_
*856 _0755_
*857 _0756_
*858 _0757_
*859 _0758_
*860 _0759_
*861 _0760_
*862 _0761_
*863 _0762_
*864 _0763_
*865 _0764_
*866 _0765_
*867 _0766_
*868 _0767_
*869 _0768_
*870 _0769_
*871 _0770_
*872 _0771_
*873 _0772_
*874 _0773_
*875 _0774_
*876 _0775_
*877 _0776_
*878 _0777_
*879 _0778_
*880 _0779_
*881 _0780_
*882 _0781_
*883 _0782_
*884 _0783_
*885 _0784_
*886 _0785_
*887 _0786_
*888 _0787_
*889 _0788_
*890 _0789_
*891 _0790_
*892 _0791_
*893 _0792_
*894 _0793_
*895 _0794_
*896 _0795_
*897 _0796_
*898 _0797_
*899 _0798_
*900 _0799_
*901 _0800_
*902 _0801_
*903 _0802_
*904 _0803_
*905 _0804_
*906 _0805_
*907 _0806_
*908 _0807_
*909 _0808_
*910 _0809_
*911 _0810_
*912 _0811_
*913 _0812_
*914 _0813_
*915 _0814_
*916 _0815_
*917 _0816_
*918 _0817_
*919 _0818_
*920 _0819_
*921 _0820_
*922 _0821_
*923 _0822_
*924 _0823_
*925 _0824_
*926 _0825_
*927 _0826_
*928 _0827_
*929 _0828_
*930 _0829_
*931 _0830_
*932 _0831_
*933 _0832_
*934 _0833_
*935 _0834_
*936 _0835_
*937 _0836_
*938 _0837_
*939 _0838_
*940 _0839_
*941 _0840_
*942 _0841_
*943 _0842_
*944 _0843_
*945 _0844_
*946 _0845_
*947 _0846_
*948 _0847_
*949 _0848_
*950 _0849_
*951 _0850_
*952 _0851_
*953 _0852_
*954 _0853_
*955 _0854_
*956 _0855_
*957 _0856_
*958 _0857_
*959 _0858_
*960 _0859_
*961 _0860_
*962 _0861_
*963 _0862_
*964 _0863_
*965 _0864_
*966 _0865_
*967 _0866_
*968 _0867_
*969 _0868_
*970 _0869_
*971 _0870_
*972 _0871_
*973 _0872_
*974 _0873_
*975 _0874_
*976 _0875_
*977 _0876_
*978 _0877_
*979 _0878_
*980 _0879_
*981 _0880_
*982 _0881_
*983 _0882_
*984 _0883_
*985 _0884_
*986 _0885_
*987 _0886_
*988 _0887_
*989 _0888_
*990 _0889_
*991 _0890_
*992 _0891_
*993 _0892_
*994 _0893_
*995 _0894_
*996 _0895_
*997 _0896_
*998 _0897_
*999 _0898_
*1000 _0899_
*1001 _0900_
*1002 _0901_
*1003 _0902_
*1004 _0903_
*1005 _0904_
*1006 _0905_
*1007 _0906_
*1008 _0907_
*1009 _0908_
*1010 _0909_
*1011 _0910_
*1012 _0911_
*1013 _0912_
*1014 _0913_
*1015 _0914_
*1016 _0915_
*1017 _0916_
*1018 _0917_
*1019 _0918_
*1020 _0919_
*1021 _0920_
*1022 _0921_
*1023 _0922_
*1024 _0923_
*1025 _0924_
*1026 _0925_
*1027 _0926_
*1028 _0927_
*1029 _0928_
*1030 _0929_
*1031 _0930_
*1032 _0931_
*1033 _0932_
*1034 _0933_
*1035 _0934_
*1036 _0935_
*1037 _0936_
*1038 _0937_
*1039 _0938_
*1040 _0939_
*1041 _0940_
*1042 _0941_
*1043 _0942_
*1044 _0943_
*1045 _0944_
*1046 _0945_
*1047 _0946_
*1048 _0947_
*1049 _0948_
*1050 _0949_
*1051 _0950_
*1052 _0951_
*1053 _0952_
*1054 _0953_
*1055 _0954_
*1056 _0955_
*1057 _0956_
*1058 _0957_
*1059 _0958_
*1060 _0959_
*1061 _0960_
*1062 _0961_
*1063 _0962_
*1064 _0963_
*1065 _0964_
*1066 _0965_
*1067 _0966_
*1068 _0967_
*1069 _0968_
*1070 _0969_
*1071 _0970_
*1072 _0971_
*1073 _0972_
*1074 _0973_
*1075 _0974_
*1076 _0975_
*1077 _0976_
*1078 _0977_
*1079 _0978_
*1080 _0979_
*1081 _0980_
*1082 _0981_
*1083 _0982_
*1084 _0983_
*1085 _0984_
*1086 _0985_
*1087 _0986_
*1088 _0987_
*1089 _0988_
*1090 _0989_
*1091 _0990_
*1092 _0991_
*1093 _0992_
*1094 _0993_
*1095 _0994_
*1096 _0995_
*1097 _0996_
*1098 _0997_
*1099 _0998_
*1100 _0999_
*1101 _1000_
*1102 _1001_
*1103 _1002_
*1104 _1003_
*1105 _1004_
*1106 _1005_
*1107 _1006_
*1108 _1007_
*1109 _1008_
*1110 _1009_
*1111 _1010_
*1112 _1011_
*1113 _1012_
*1114 _1013_
*1115 _1014_
*1116 _1015_
*1117 _1016_
*1118 _1017_
*1119 _1018_
*1120 _1019_
*1121 _1020_
*1122 _1021_
*1123 _1022_
*1124 _1023_
*1125 _1024_
*1126 _1025_
*1127 _1026_
*1128 _1027_
*1129 _1028_
*1130 _1029_
*1131 _1030_
*1132 _1031_
*1133 _1032_
*1134 _1033_
*1135 _1034_
*1136 _1035_
*1137 _1036_
*1138 _1037_
*1139 _1038_
*1140 _1039_
*1141 _1040_
*1142 _1041_
*1143 _1042_
*1144 _1043_
*1145 _1044_
*1146 _1045_
*1147 _1046_
*1148 _1047_
*1149 _1048_
*1150 _1049_
*1151 _1050_
*1152 _1051_
*1153 _1052_
*1154 _1053_
*1155 _1054_
*1156 _1055_
*1157 _1056_
*1158 _1057_
*1159 _1058_
*1160 _1059_
*1161 _1060_
*1162 _1061_
*1163 _1062_
*1164 _1063_
*1165 _1064_
*1166 _1065_
*1167 _1066_
*1168 _1067_
*1169 _1068_
*1170 _1069_
*1171 _1070_
*1172 _1071_
*1173 _1072_
*1174 _1073_
*1175 _1074_
*1176 _1075_
*1177 _1076_
*1178 _1077_
*1179 _1078_
*1180 _1079_
*1181 _1080_
*1182 _1081_
*1183 _1082_
*1184 _1083_
*1185 _1084_
*1186 _1085_
*1187 _1086_
*1188 _1087_
*1189 _1088_
*1190 _1089_
*1191 _1090_
*1192 _1091_
*1193 _1092_
*1194 _1093_
*1195 _1094_
*1196 _1095_
*1197 _1096_
*1198 _1097_
*1199 _1098_
*1200 _1099_
*1201 _1100_
*1202 _1101_
*1203 _1102_
*1204 _1103_
*1205 _1104_
*1206 _1105_
*1207 _1106_
*1208 _1107_
*1209 _1108_
*1210 _1109_
*1211 _1110_
*1212 _1111_
*1213 _1112_
*1214 _1113_
*1215 _1114_
*1216 _1115_
*1217 _1116_
*1218 _1117_
*1219 _1118_
*1220 _1119_
*1221 _1120_
*1222 _1121_
*1223 _1122_
*1224 _1123_
*1225 _1124_
*1226 _1125_
*1227 _1126_
*1228 _1127_
*1229 _1128_
*1230 _1129_
*1231 _1130_
*1232 _1131_
*1233 _1132_
*1234 _1133_
*1235 _1134_
*1236 _1135_
*1237 _1136_
*1238 _1137_
*1239 _1138_
*1240 _1139_
*1241 _1140_
*1242 _1141_
*1243 _1142_
*1244 _1143_
*1245 _1144_
*1246 _1145_
*1247 _1146_
*1248 _1147_
*1249 _1148_
*1250 _1149_
*1251 _1150_
*1252 _1151_
*1253 _1152_
*1254 _1153_
*1255 _1154_
*1256 _1155_
*1257 _1156_
*1258 _1157_
*1259 _1158_
*1260 _1159_
*1261 _1160_
*1262 _1161_
*1263 _1162_
*1264 _1163_
*1265 _1164_
*1266 _1165_
*1267 _1166_
*1268 _1167_
*1269 _1168_
*1270 _1169_
*1271 _1170_
*1272 _1171_
*1273 _1172_
*1274 _1173_
*1275 _1174_
*1276 _1175_
*1277 _1176_
*1278 _1177_
*1279 _1178_
*1280 _1179_
*1281 _1180_
*1282 _1181_
*1283 _1182_
*1284 _1183_
*1285 _1184_
*1286 _1185_
*1287 _1186_
*1288 _1187_
*1289 _1188_
*1290 _1189_
*1291 _1190_
*1292 _1191_
*1293 _1192_
*1294 _1193_
*1295 _1194_
*1296 _1195_
*1297 _1196_
*1298 _1197_
*1299 _1198_
*1300 _1199_
*1301 _1200_
*1302 _1201_
*1303 _1202_
*1304 _1203_
*1305 _1204_
*1306 _1205_
*1307 _1206_
*1308 _1207_
*1309 _1208_
*1310 _1209_
*1311 _1210_
*1312 _1211_
*1313 _1212_
*1314 _1213_
*1315 _1214_
*1316 _1215_
*1317 _1216_
*1318 _1217_
*1319 _1218_
*1320 _1219_
*1321 _1220_
*1322 _1221_
*1323 _1222_
*1324 _1223_
*1325 _1224_
*1326 _1225_
*1327 _1226_
*1328 _1227_
*1329 _1228_
*1330 _1229_
*1331 _1230_
*1332 _1231_
*1333 _1232_
*1334 _1233_
*1335 _1234_
*1336 _1235_
*1337 _1236_
*1338 _1237_
*1339 _1238_
*1340 _1239_
*1341 _1240_
*1342 _1241_
*1343 _1242_
*1344 _1243_
*1345 _1244_
*1346 _1245_
*1347 _1246_
*1348 _1247_
*1349 _1248_
*1350 _1249_
*1351 _1250_
*1352 _1251_
*1353 _1252_
*1354 _1253_
*1355 _1254_
*1356 _1255_
*1357 _1256_
*1358 _1257_
*1359 _1258_
*1360 _1259_
*1361 _1260_
*1362 _1261_
*1363 _1262_
*1364 _1263_
*1365 _1264_
*1366 _1265_
*1367 _1266_
*1368 _1267_
*1369 _1268_
*1370 _1269_
*1371 _1270_
*1372 _1271_
*1373 _1272_
*1374 _1273_
*1375 _1274_
*1376 _1275_
*1377 _1276_
*1378 _1277_
*1379 _1278_
*1380 _1279_
*1381 _1280_
*1382 _1281_
*1383 _1282_
*1384 _1283_
*1385 _1284_
*1386 _1285_
*1387 _1286_
*1388 _1287_
*1389 _1288_
*1390 _1289_
*1391 _1290_
*1392 _1291_
*1393 _1292_
*1394 _1293_
*1395 _1294_
*1396 _1295_
*1397 _1296_
*1398 _1297_
*1399 _1298_
*1400 _1299_
*1401 _1300_
*1402 _1301_
*1403 _1302_
*1404 _1303_
*1405 _1304_
*1406 _1305_
*1407 _1306_
*1408 _1307_
*1409 _1308_
*1410 _1309_
*1411 _1310_
*1412 _1311_
*1413 _1312_
*1414 _1313_
*1415 _1314_
*1416 _1315_
*1417 _1316_
*1418 _1317_
*1419 _1318_
*1420 _1319_
*1421 _1320_
*1422 _1321_
*1423 _1322_
*1424 _1323_
*1425 _1324_
*1426 _1325_
*1427 _1326_
*1428 _1327_
*1429 _1328_
*1430 _1329_
*1431 _1330_
*1432 _1331_
*1433 _1332_
*1434 _1333_
*1435 _1334_
*1436 _1335_
*1437 _1336_
*1438 _1337_
*1439 _1338_
*1440 _1339_
*1441 _1340_
*1442 _1341_
*1443 _1342_
*1444 _1343_
*1445 _1344_
*1446 _1345_
*1447 _1346_
*1448 _1347_
*1449 _1348_
*1450 _1349_
*1451 _1350_
*1452 _1351_
*1453 _1352_
*1454 _1353_
*1455 _1354_
*1456 _1355_
*1457 _1356_
*1458 _1357_
*1459 _1358_
*1460 _1359_
*1461 _1360_
*1462 _1361_
*1463 _1362_
*1464 _1363_
*1465 _1364_
*1466 _1365_
*1467 _1366_
*1468 _1367_
*1469 _1368_
*1470 _1369_
*1471 _1370_
*1472 _1371_
*1473 _1372_
*1474 _1373_
*1475 _1374_
*1476 _1375_
*1477 _1376_
*1478 _1377_
*1479 _1378_
*1480 _1379_
*1481 _1380_
*1482 _1381_
*1483 _1382_
*1484 _1383_
*1485 _1384_
*1486 _1385_
*1487 _1386_
*1488 _1387_
*1489 _1388_
*1490 _1389_
*1491 _1390_
*1492 _1391_
*1493 _1392_
*1494 _1393_
*1495 _1394_
*1496 _1395_
*1497 _1396_
*1498 _1397_
*1499 _1398_
*1500 _1399_
*1501 _1400_
*1502 _1401_
*1503 _1402_
*1504 _1403_
*1505 _1404_
*1506 _1405_
*1507 _1406_
*1508 _1407_
*1509 _1408_
*1510 _1409_
*1511 _1410_
*1512 _1411_
*1513 _1412_
*1514 _1413_
*1515 _1414_
*1516 _1415_
*1517 _1416_
*1518 _1417_
*1519 _1418_
*1520 _1419_
*1521 _1420_
*1522 _1421_
*1523 _1422_
*1524 _1423_
*1525 _1424_
*1526 _1425_
*1527 _1426_
*1528 _1427_
*1529 _1428_
*1530 _1429_
*1531 _1430_
*1532 _1431_
*1533 _1432_
*1534 _1433_
*1535 _1434_
*1536 _1435_
*1537 _1436_
*1538 _1437_
*1539 _1438_
*1540 _1439_
*1541 _1440_
*1542 _1441_
*1543 _1442_
*1544 _1443_
*1545 _1444_
*1546 _1445_
*1547 _1446_
*1548 _1447_
*1549 _1448_
*1550 _1449_
*1551 _1450_
*1552 _1451_
*1553 _1452_
*1554 _1453_
*1555 _1454_
*1556 _1455_
*1557 _1456_
*1558 _1457_
*1559 _1458_
*1560 _1459_
*1561 _1460_
*1562 _1461_
*1563 _1462_
*1564 _1463_
*1565 _1464_
*1566 _1465_
*1567 _1466_
*1568 _1467_
*1569 _1468_
*1570 _1469_
*1571 _1470_
*1572 _1471_
*1573 _1472_
*1574 _1473_
*1575 _1474_
*1576 _1475_
*1577 _1476_
*1578 _1477_
*1579 _1478_
*1580 _1479_
*1581 _1480_
*1582 _1481_
*1583 _1482_
*1584 _1483_
*1585 _1484_
*1586 _1485_
*1587 _1486_
*1588 _1487_
*1589 _1488_
*1590 _1489_
*1591 _1490_
*1592 _1491_
*1593 _1492_
*1594 _1493_
*1595 _1494_
*1596 _1495_
*1597 _1496_
*1598 _1497_
*1599 _1498_
*1600 _1499_
*1601 _1500_
*1602 _1501_
*1603 _1502_
*1604 _1503_
*1605 _1504_
*1606 _1505_
*1607 _1506_
*1608 _1507_
*1609 _1508_
*1610 _1509_
*1611 _1510_
*1612 _1511_
*1613 _1512_
*1614 _1513_
*1615 _1514_
*1616 _1515_
*1617 _1516_
*1618 _1517_
*1619 _1518_
*1620 _1519_
*1621 _1520_
*1622 _1521_
*1623 _1522_
*1624 _1523_
*1625 _1524_
*1626 _1525_
*1627 _1526_
*1628 _1527_
*1629 _1528_
*1630 _1529_
*1631 _1530_
*1632 _1531_
*1633 _1532_
*1634 _1533_
*1635 _1534_
*1636 _1535_
*1637 _1536_
*1638 _1537_
*1639 _1538_
*1640 _1539_
*1641 _1540_
*1642 _1541_
*1643 _1542_
*1644 _1543_
*1645 _1544_
*1646 _1545_
*1647 _1546_
*1648 _1547_
*1649 _1548_
*1650 _1549_
*1651 _1550_
*1652 _1551_
*1653 _1552_
*1654 _1553_
*1655 _1554_
*1656 _1555_
*1657 _1556_
*1658 _1557_
*1659 _1558_
*1660 _1559_
*1661 _1560_
*1662 _1561_
*1663 _1562_
*1664 _1563_
*1665 _1564_
*1666 _1565_
*1667 _1566_
*1668 _1567_
*1669 _1568_
*1670 _1569_
*1671 _1570_
*1672 _1571_
*1673 _1572_
*1674 _1573_
*1675 _1574_
*1676 _1575_
*1677 _1576_
*1678 _1577_
*1679 _1578_
*1680 _1579_
*1681 _1580_
*1682 _1581_
*1683 _1582_
*1684 _1583_
*1685 _1584_
*1686 _1585_
*1687 _1586_
*1688 _1587_
*1689 _1588_
*1690 _1589_
*1691 _1590_
*1692 _1591_
*1693 _1592_
*1694 _1593_
*1695 _1594_
*1696 _1595_
*1697 _1596_
*1698 _1597_
*1699 _1598_
*1700 _1599_
*1701 _1600_
*1702 _1601_
*1703 _1602_
*1704 _1603_
*1705 _1604_
*1706 _1605_
*1707 _1606_
*1708 _1607_
*1709 _1608_
*1710 _1609_
*1711 _1610_
*1712 _1611_
*1713 _1612_
*1714 _1613_
*1715 _1614_
*1716 _1615_
*1717 _1616_
*1718 _1617_
*1719 _1618_
*1720 _1619_
*1721 _1620_
*1722 _1621_
*1723 _1622_
*1724 _1623_
*1725 _1624_
*1726 _1625_
*1727 _1626_
*1728 _1627_
*1729 _1628_
*1730 _1629_
*1731 _1630_
*1732 _1631_
*1733 _1632_
*1734 _1633_
*1735 _1634_
*1736 _1635_
*1737 _1636_
*1738 _1637_
*1739 _1638_
*1740 _1639_
*1741 _1640_
*1742 _1641_
*1743 _1642_
*1744 _1643_
*1745 _1644_
*1746 _1645_
*1747 _1646_
*1748 _1647_
*1749 _1648_
*1750 _1649_
*1751 _1650_
*1752 _1651_
*1753 _1652_
*1754 _1653_
*1755 _1654_
*1756 _1655_
*1757 _1656_
*1758 _1657_
*1759 _1658_
*1760 _1659_
*1761 _1660_
*1762 _1661_
*1763 _1662_
*1764 _1663_
*1765 _1664_
*1766 _1665_
*1767 _1666_
*1768 _1667_
*1769 _1668_
*1770 _1669_
*1771 _1670_
*1772 _1671_
*1773 _1672_
*1774 _1673_
*1775 _1674_
*1776 _1675_
*1777 _1676_
*1778 _1677_
*1779 _1678_
*1780 _1679_
*1781 _1680_
*1782 _1681_
*1783 _1682_
*1784 _1683_
*1785 _1684_
*1786 _1685_
*1787 _1686_
*1788 _1687_
*1789 _1688_
*1790 _1689_
*1791 _1690_
*1792 _1691_
*1793 _1692_
*1794 _1693_
*1795 _1694_
*1796 _1695_
*1797 _1696_
*1798 _1697_
*1799 _1698_
*1800 _1699_
*1801 _1700_
*1802 _1701_
*1803 _1702_
*1804 _1703_
*1805 _1704_
*1806 _1705_
*1807 _1706_
*1808 _1707_
*1809 _1708_
*1810 _1709_
*1811 _1710_
*1812 _1711_
*1813 _1712_
*1814 _1713_
*1815 _1714_
*1816 _1715_
*1817 _1716_
*1818 _1717_
*1819 _1718_
*1820 _1719_
*1821 _1720_
*1822 _1721_
*1823 _1722_
*1824 _1723_
*1825 _1724_
*1826 _1725_
*1827 _1726_
*1828 _1727_
*1829 _1728_
*1830 _1729_
*1831 _1730_
*1832 _1731_
*1833 _1732_
*1834 _1733_
*1835 _1734_
*1836 _1735_
*1837 _1736_
*1838 _1737_
*1839 _1738_
*1840 _1739_
*1841 _1740_
*1842 _1741_
*1843 _1742_
*1844 _1743_
*1845 _1744_
*1846 _1745_
*1847 _1746_
*1848 _1747_
*1849 _1748_
*1850 _1749_
*1851 _1750_
*1852 _1751_
*1853 _1752_
*1854 _1753_
*1855 _1754_
*1856 _1755_
*1857 _1756_
*1858 _1757_
*1859 _1758_
*1860 _1759_
*1861 _1760_
*1862 _1761_
*1863 _1762_
*1864 _1763_
*1865 _1764_
*1866 _1765_
*1867 _1766_
*1868 _1767_
*1869 _1768_
*1870 _1769_
*1871 _1770_
*1872 _1771_
*1873 _1772_
*1874 _1773_
*1875 _1774_
*1876 _1775_
*1877 _1776_
*1878 _1777_
*1879 _1778_
*1880 _1779_
*1881 _1780_
*1882 _1781_
*1883 _1782_
*1884 _1783_
*1885 _1784_
*1886 _1785_
*1887 _1786_
*1888 _1787_
*1889 _1788_
*1890 _1789_
*1891 _1790_
*1892 _1791_
*1893 _1792_
*1894 _1793_
*1895 _1794_
*1896 _1795_
*1897 _1796_
*1898 _1797_
*1899 _1798_
*1900 _1799_
*1901 _1800_
*1902 _1801_
*1903 _1802_
*1904 _1803_
*1905 _1804_
*1906 _1805_
*1907 _1806_
*1908 _1807_
*1909 _1808_
*1910 _1809_
*1911 _1810_
*1912 _1811_
*1913 _1812_
*1914 _1813_
*1915 _1814_
*1916 _1815_
*1917 _1816_
*1918 _1817_
*1919 _1818_
*1920 _1819_
*1921 _1820_
*1922 _1821_
*1923 _1822_
*1924 _1823_
*1925 _1824_
*1926 _1825_
*1927 _1826_
*1928 _1827_
*1929 _1828_
*1930 _1829_
*1931 _1830_
*1932 _1831_
*1933 _1832_
*1934 _1833_
*1935 _1834_
*1936 _1835_
*1937 _1836_
*1938 _1837_
*1939 _1838_
*1940 _1839_
*1941 _1840_
*1942 _1841_
*1943 _1842_
*1944 _1843_
*1945 _1844_
*1946 _1845_
*1947 _1846_
*1948 _1847_
*1949 _1848_
*1950 _1849_
*1951 _1850_
*1952 _1851_
*1953 _1852_
*1954 _1853_
*1955 _1854_
*1956 _1855_
*1957 _1856_
*1958 _1857_
*1959 _1858_
*1960 _1859_
*1961 _1860_
*1962 _1861_
*1963 _1862_
*1964 _1863_
*1965 _1864_
*1966 _1865_
*1967 _1866_
*1968 _1867_
*1969 _1868_
*1970 _1869_
*1971 _1870_
*1972 _1871_
*1973 _1872_
*1974 _1873_
*1975 _1874_
*1976 _1875_
*1977 _1876_
*1978 _1877_
*1979 _1878_
*1980 _1879_
*1981 _1880_
*1982 _1881_
*1983 _1882_
*1984 _1883_
*1985 _1884_
*1986 _1885_
*1987 _1886_
*1988 _1887_
*1989 _1888_
*1990 _1889_
*1991 _1890_
*1992 _1891_
*1993 _1892_
*1994 _1893_
*1995 _1894_
*1996 _1895_
*1997 _1896_
*1998 _1897_
*1999 _1898_
*2000 _1899_
*2001 _1900_
*2002 _1901_
*2003 _1902_
*2004 _1903_
*2005 _1904_
*2006 _1905_
*2007 _1906_
*2008 _1907_
*2009 _1908_
*2010 _1909_
*2011 _1910_
*2012 _1911_
*2013 _1912_
*2014 _1913_
*2015 _1914_
*2016 _1915_
*2017 _1916_
*2018 _1917_
*2019 _1918_
*2020 _1919_
*2021 _1920_
*2022 _1921_
*2023 _1922_
*2024 _1923_
*2025 _1924_
*2026 _1925_
*2027 _1926_
*2028 clknet_0_clk
*2029 clknet_2_0__leaf_clk
*2030 clknet_2_1__leaf_clk
*2031 clknet_2_2__leaf_clk
*2032 clknet_2_3__leaf_clk
*2033 clknet_leaf_0_clk
*2034 clknet_leaf_10_clk
*2035 clknet_leaf_11_clk
*2036 clknet_leaf_12_clk
*2037 clknet_leaf_13_clk
*2038 clknet_leaf_14_clk
*2039 clknet_leaf_15_clk
*2040 clknet_leaf_16_clk
*2041 clknet_leaf_17_clk
*2042 clknet_leaf_19_clk
*2043 clknet_leaf_1_clk
*2044 clknet_leaf_20_clk
*2045 clknet_leaf_21_clk
*2046 clknet_leaf_23_clk
*2047 clknet_leaf_24_clk
*2048 clknet_leaf_25_clk
*2049 clknet_leaf_26_clk
*2050 clknet_leaf_27_clk
*2051 clknet_leaf_28_clk
*2052 clknet_leaf_29_clk
*2053 clknet_leaf_2_clk
*2054 clknet_leaf_3_clk
*2055 clknet_leaf_4_clk
*2056 clknet_leaf_5_clk
*2057 clknet_leaf_6_clk
*2058 clknet_leaf_7_clk
*2059 clknet_leaf_8_clk
*2060 clknet_leaf_9_clk
*2061 expadd\[0\]
*2062 expadd\[1\]
*2063 expadd\[2\]
*2064 expadd\[3\]
*2065 expadd\[4\]
*2066 expadd\[5\]
*2067 expadd\[6\]
*2068 expadd\[7\]
*2069 expmiddle\[0\]
*2070 expmiddle\[1\]
*2071 expmiddle\[2\]
*2072 expmiddle\[3\]
*2073 expmiddle\[4\]
*2074 expmiddle\[5\]
*2075 expmiddle\[6\]
*2076 expmiddle\[7\]
*2077 expmiddlea\[0\]
*2078 expmiddlea\[1\]
*2079 expmiddlea\[2\]
*2080 expmiddlea\[3\]
*2081 expmiddlea\[4\]
*2082 expmiddlea\[5\]
*2083 expmiddlea\[6\]
*2084 expmiddlea\[7\]
*2085 expmiddleb\[0\]
*2086 expmiddleb\[1\]
*2087 expmiddleb\[2\]
*2088 expmiddleb\[3\]
*2089 expmiddleb\[4\]
*2090 expmiddleb\[5\]
*2091 expmiddleb\[6\]
*2092 expmiddleb\[7\]
*2093 expmiddlec\[0\]
*2094 expmiddlec\[1\]
*2095 expmiddlec\[2\]
*2096 expmiddlec\[3\]
*2097 expmiddlec\[4\]
*2098 expmiddlec\[5\]
*2099 expmiddlec\[6\]
*2100 expmiddlec\[7\]
*2101 expmiddled\[0\]
*2102 expmiddled\[1\]
*2103 expmiddled\[2\]
*2104 expmiddled\[3\]
*2105 expmiddled\[4\]
*2106 expmiddled\[5\]
*2107 expmiddled\[6\]
*2108 expmiddled\[7\]
*2109 four_man\[39\]
*2110 four_man\[40\]
*2111 four_man\[41\]
*2112 four_man\[42\]
*2113 four_man\[43\]
*2114 four_man\[44\]
*2115 four_man\[45\]
*2116 four_man\[46\]
*2117 four_man\[47\]
*2118 four_man\[48\]
*2119 four_man\[49\]
*2120 four_man\[50\]
*2121 four_man\[51\]
*2122 four_man\[52\]
*2123 four_man\[53\]
*2124 four_man\[54\]
*2125 four_man\[55\]
*2126 four_man\[56\]
*2127 four_man\[57\]
*2128 four_man\[58\]
*2129 four_man\[59\]
*2130 four_man\[60\]
*2131 four_man\[61\]
*2132 inf0
*2133 inf1
*2134 inf2
*2135 inf3
*2136 mantisaA0\[0\]
*2137 mantisaA0\[10\]
*2138 mantisaA0\[11\]
*2139 mantisaA0\[12\]
*2140 mantisaA0\[13\]
*2141 mantisaA0\[14\]
*2142 mantisaA0\[15\]
*2143 mantisaA0\[16\]
*2144 mantisaA0\[17\]
*2145 mantisaA0\[18\]
*2146 mantisaA0\[19\]
*2147 mantisaA0\[1\]
*2148 mantisaA0\[20\]
*2149 mantisaA0\[21\]
*2150 mantisaA0\[22\]
*2151 mantisaA0\[23\]
*2152 mantisaA0\[2\]
*2153 mantisaA0\[3\]
*2154 mantisaA0\[4\]
*2155 mantisaA0\[5\]
*2156 mantisaA0\[6\]
*2157 mantisaA0\[7\]
*2158 mantisaA0\[8\]
*2159 mantisaA0\[9\]
*2160 mantisaAshift\[39\]
*2161 mantisaAshift\[40\]
*2162 mantisaAshift\[41\]
*2163 mantisaAshift\[42\]
*2164 mantisaAshift\[43\]
*2165 mantisaAshift\[44\]
*2166 mantisaAshift\[45\]
*2167 mantisaAshift\[46\]
*2168 mantisaAshift\[47\]
*2169 mantisaAshift\[48\]
*2170 mantisaAshift\[49\]
*2171 mantisaAshift\[50\]
*2172 mantisaAshift\[51\]
*2173 mantisaAshift\[52\]
*2174 mantisaAshift\[53\]
*2175 mantisaAshift\[54\]
*2176 mantisaAshift\[55\]
*2177 mantisaAshift\[56\]
*2178 mantisaAshift\[57\]
*2179 mantisaAshift\[58\]
*2180 mantisaAshift\[59\]
*2181 mantisaAshift\[60\]
*2182 mantisaAshift\[61\]
*2183 mantisaAshift\[62\]
*2184 mantisaB0\[0\]
*2185 mantisaB0\[10\]
*2186 mantisaB0\[11\]
*2187 mantisaB0\[12\]
*2188 mantisaB0\[13\]
*2189 mantisaB0\[14\]
*2190 mantisaB0\[15\]
*2191 mantisaB0\[16\]
*2192 mantisaB0\[17\]
*2193 mantisaB0\[18\]
*2194 mantisaB0\[19\]
*2195 mantisaB0\[1\]
*2196 mantisaB0\[20\]
*2197 mantisaB0\[21\]
*2198 mantisaB0\[22\]
*2199 mantisaB0\[2\]
*2200 mantisaB0\[3\]
*2201 mantisaB0\[4\]
*2202 mantisaB0\[5\]
*2203 mantisaB0\[6\]
*2204 mantisaB0\[7\]
*2205 mantisaB0\[8\]
*2206 mantisaB0\[9\]
*2207 mantisaBshift\[0\]
*2208 mantisaBshift\[10\]